*Node
1,-0.8836826850111801,-0.07611786582005836,0
2,-0.831129650351125,-0.09753096457419758,0.1
3,-0.8311066919287526,-0.09753164323777326,0
4,-0.8077278516533049,-0.04031410642069731,0.05000019951266783
5,-0.2320405329347481,-0.2979913314713151,0
6,-0.2320406283265133,-0.2979917860016139,0.1
7,-0.1920452434482554,-0.3389456629421158,0
8,-0.1998177330022177,-0.2556770133987328,0.05254501915439382
9,0.8830228218034045,0.243002243856634,0.1
10,0.8829557291191066,0.2429792709969083,0
11,0.9418275861869121,0.2362984556630229,0
12,0.8654126342727141,0.1816647633342842,0.04999966722320537
13,-0.05694040405891632,0.2768192421012384,0.1
14,-0.05068315493532592,0.3234427098205322,0.05000000202792806
15,-0.02687865724123331,0.2546020903372967,0.07109958788589869
16,-0.1026794156736436,0.2597306112113698,0.05000000036318768
17,-0.8522193672961194,-0.4493414118326506,0
18,-0.7940141142603748,-0.4491090605912427,0
19,-0.823171170912615,-0.3983220301502459,0
20,-0.7640233109523277,-0.4362141287891521,0.04996947872892654
** ... 2236 like lines cut
*Element, type=C3D4
1,1,2,3,4
2,5,6,7,8
3,9,10,11,12
4,13,14,15,16
5,17,18,19,20
6,21,7,5,6
7,22,23,24,25
8,26,27,28,29
9,30,31,27,29
10,32,33,34,35
11,36,37,38,39
12,40,41,42,43
13,44,45,46,47
14,22,48,24,23
15,49,28,27,29
16,50,27,31,29
17,51,52,53,54
18,55,56,57,58
19,59,60,61,58
20,62,17,63,20
** ... 7274 like lines cut
*FEM Nodes
All
*FEM Elements
All
*SOLVER, IMPLICIT STATIC
*Number Of Steps
50
*Outputs
1000
All,max
*Time
0,10
*BOUNDARY, TYPE=DISPLACEMENT RAMP
997,0,0
837,0,0
998,0,0
1016,0,0
2231,0,0
2228,0,0
2232,0,0
2225,0,0
2227,0,0
2226,0,0
2205,0,0
2248,0,0
1968,0,0
1902,0,0
1814,0,0
2045,0,0
2249,0,0
1888,0,0
1751,0,0
1710,0,0
** ... 255 like lines cut
*EXTRACTION, NODE
TipDisplacement,Unknown,Mean,0
2233
*EXTRACTION, NODE
TipDisplacement,Unknown,Mean,1
2233
*EXTRACTION, NODE
TipDisplacement,Unknown,Mean,2
2233
*EXTRACTION, NODE
TipDisplacement,Unknown,Mean,3
2233
*EXTRACTION, NODE
CenterDisplacement,Unknown,Mean,0
2158
*EXTRACTION, NODE
CenterDisplacement,Unknown,Mean,1
2158
*EXTRACTION, NODE
CenterDisplacement,Unknown,Mean,2
2158
*EXTRACTION, NODE
CenterDisplacement,Unknown,Mean,3
2158
*EXTRACTION, ELEMENT
DeforEnergy,DEFO_ENERGY,Sum
All
*EXTRACTION, ELEMENT
kineEnergy,KIN_ENERGY,Sum
All
*EXTRACTION, ELEMENT
extEnergy,EXTERNAL_ENERGY,Sum
All
*END SOLVER
*BOUNDARY, TYPE=PRESSURE RAMP
0,1,-10,4
3328
6540
2961
6165
7190
6293
6680
6808
5539
3748
6699
6707
6196
5943
6079
6603
5708
2900
7135
** ... 5 like lines cut
*BOUNDARY, TYPE=PRESSURE RAMP
0,1,-10,1
6402
6276
2959
6163
2452
6812
6429
6304
6184
5546
5423
6068
6074
5946
3645
3137
6086
6728
3408
** ... 10 like lines cut
*BOUNDARY, TYPE=PRESSURE RAMP
0,1,-10,3
6752
2560
6212
6372
7108
2765
6127
6069
2392
6302
*BOUNDARY, TYPE=PRESSURE RAMP
0,1,-10,2
2656
2433
3012
6084
2791
2910
6271
*BOUNDARY, TYPE=PRESSURE RAMP
0.5,1,-0.1,3
6784
5640
6410
6155
6795
6157
2702
654
7056
6801
6290
7187
7188
531
6679
7191
5658
3739
923
** ... 53 like lines cut
*BOUNDARY, TYPE=PRESSURE RAMP
0.5,1,-0.1,1
13
19
29
34
42
46
51
52
71
75
126
148
151
157
163
176
181
183
187
** ... 1417 like lines cut
*BOUNDARY, TYPE=PRESSURE RAMP
0.5,1,-0.1,2
4992
6145
1024
6403
6659
3077
773
6407
776
524
273
6419
6804
404
534
23
1305
6170
27
** ... 54 like lines cut
*BOUNDARY, TYPE=PRESSURE RAMP
0.5,1,-0.1,4
7170
5635
3460
2691
3463
5778
6933
7063
1049
2844
31
3617
7073
7203
4517
2854
4263
6950
4137
** ... 40 like lines cut
*FLUX EXTRADOF, TYPE=VOLUMETRIC HEAT FLUX
0,10,0
1
2
3
4
5
6
7
8
9
10
11
12
13
14
15
16
17
18
19
** ... 7275 like lines cut
*MATERIAL, name=Mat1
*Density
1000
*HyperElastic, Neo-Hookean
1000000000.0,0.3
*ExtraDof
*Temperature
0,0,5,0,0,0,0
*List of Elements
All
*INITIAL CONDITIONS EXTRADOF
273.0
*END