*Node
1, -0.05, 0
2, 0, 0
3, 0.05, 0
4, -0.05, 0.05
5, 0, 0.05
6, 0.05, 0.05
7, -0.05, 0.1
8, 0, 0.1
9, 0.05, 0.1
10, -0.05, 0.15
11, 0, 0.15
12, 0.05, 0.15
13, -0.05, 0.2
14, 0, 0.2
15, 0.05, 0.2
16, -0.05, 0.25
17, 0, 0.25
18, 0.05, 0.25
19, -0.05, 0.3
20, 0, 0.3
** ... 43 like lines cut
*Element, type=CPS3
1, 1, 2, 4
2, 5, 4, 2
3, 2, 3, 5
4, 6, 5, 3
5, 4, 5, 7
6, 8, 7, 5
7, 5, 6, 8
8, 9, 8, 6
9, 7, 8, 10
10, 11, 10, 8
11, 8, 9, 11
12, 12, 11, 9
13, 10, 11, 13
14, 14, 13, 11
15, 11, 12, 14
16, 15, 14, 12
17, 13, 14, 16
18, 17, 16, 14
19, 14, 15, 17
20, 18, 17, 15
** ... 60 like lines cut
*FEM Nodes
All
*FEM Elements
All
*SOLVER, IMPLICIT
*Scale Factor
1e10
*FSI
1
2
3
4
6
7
9
10
12
13
15
16
18
19
21
22
24
25
27
28
** ... 24 like lines cut
*Outputs
500
All, max
*Time
0, 3
*BOUNDARY, TYPE=DISPLACEMENT INST
1, 0, 0
2, 0, 0
3, 0, 0
1, 1, 0
2, 1, 0
3, 1, 0
*END SOLVER
*MATERIAL, name=Region1
*Density
3000
*HyperElastic, St-Venant-Kirchhoff
4e+6, 0.3
*List of Elements
All
*END
