*Node
1,0,0.4,0
2,0.01249999999997083,0.4,0
3,0.01249999999997083,0.425,0
4,0,0.425,0
5,0,0.4,0.0125
6,0.01249999999997083,0.4,0.0125
7,0.01249999999997083,0.425,0.0125
8,0,0.425,0.0125
9,0,0.4,0.025
10,0.01249999999997083,0.4,0.025
11,0.01249999999997083,0.425,0.025
12,0,0.425,0.025
13,0,0.4,0.03750000000000001
14,0.01249999999997083,0.4,0.03750000000000001
15,0.01249999999997083,0.425,0.03750000000000001
16,0,0.425,0.03750000000000001
17,0,0.4,0.05
18,0.01249999999997083,0.4,0.05
19,0.01249999999997083,0.425,0.05
20,0,0.425,0.05
** ... 705 like lines cut
*Element, type=C3D8
1,1,2,3,4,5,6,7,8
2,5,6,7,8,9,10,11,12
3,9,10,11,12,13,14,15,16
4,13,14,15,16,17,18,19,20
5,4,3,21,22,8,7,23,24
6,8,7,23,24,12,11,25,26
7,12,11,25,26,16,15,27,28
8,16,15,27,28,20,19,29,30
9,22,21,31,32,24,23,33,34
10,24,23,33,34,26,25,35,36
11,26,25,35,36,28,27,37,38
12,28,27,37,38,30,29,39,40
13,32,31,41,42,34,33,43,44
14,34,33,43,44,36,35,45,46
15,36,35,45,46,38,37,47,48
16,38,37,47,48,40,39,49,50
17,42,41,51,52,44,43,53,54
18,44,43,53,54,46,45,55,56
19,46,45,55,56,48,47,57,58
20,48,47,57,58,50,49,59,60
** ... 428 like lines cut
*FEM Nodes
All
*FEM Elements
All
*SOLVER, IMPLICIT STATIC
*Number Of Steps
50
*Outputs
1000
All,max
*Time
0,0.0015
*BOUNDARY, TYPE=DISPLACEMENT RAMP
426,0,0
666,0,0
326,0,0
406,0,0
342,0,0
414,0,0
442,0,0
674,0,0
427,0,0
546,0,0
606,0,0
327,0,0
366,0,0
386,0,0
429,0,0
447,0,0
457,0,0
467,0,0
477,0,0
487,0,0
** ... 2205 like lines cut
*END SOLVER
*FLUX EXTRADOF, TYPE=EXP VOLUMETRIC HEAT FLUX
0,5e-05,43162448.69401696,0.025,0.305,0.025,10000000000,0.05773502691896258,10000000000
*MATERIAL, name=Mat1
*Density
8.146000000000001e-09
*Linear-Elastic
200000.0,0.3
*ExtraDof
*Temperature
435000000.0,0,8.9,0,298.0,298.0,298.0
*List of Elements
All
*INITIAL CONDITIONS EXTRADOF
298.0
*END