*Heading
** Job name: Job-20-20-8 Model name: Model-1
** Generated by: Abaqus/CAE 2017
*Preprint, echo=NO, model=NO, history=NO, contact=NO
**
** PARTS
**
*Part, name=Part-1
*Node
      1,           5.,           5.,           2.
      2,           5.,         4.75,           2.
      3,           5.,          4.5,           2.
      4,           5.,         4.25,           2.
      5,           5.,           4.,           2.
      6,           5.,         3.75,           2.
      7,           5.,          3.5,           2.
      8,           5.,         3.25,           2.
      9,           5.,           3.,           2.
     10,           5.,         2.75,           2.
     11,           5.,          2.5,           2.
     12,           5.,         2.25,           2.
     13,           5.,           2.,           2.
     14,           5.,         1.75,           2.
     15,           5.,          1.5,           2.
     16,           5.,         1.25,           2.
     17,           5.,           1.,           2.
     18,           5.,         0.75,           2.
     19,           5.,          0.5,           2.
     20,           5.,         0.25,           2.
** ... 3949 like lines cut
*Element, type=C3D8R
   1,  190,  191,  212,  211,    1,    2,   23,   22
   2,  191,  192,  213,  212,    2,    3,   24,   23
   3,  192,  193,  214,  213,    3,    4,   25,   24
   4,  193,  194,  215,  214,    4,    5,   26,   25
   5,  194,  195,  216,  215,    5,    6,   27,   26
   6,  195,  196,  217,  216,    6,    7,   28,   27
   7,  196,  197,  218,  217,    7,    8,   29,   28
   8,  197,  198,  219,  218,    8,    9,   30,   29
   9,  198,  199,  220,  219,    9,   10,   31,   30
  10,  199,  200,  221,  220,   10,   11,   32,   31
  11,  200,  201,  222,  221,   11,   12,   33,   32
  12,  201,  202,  223,  222,   12,   13,   34,   33
  13,  202,  203,  224,  223,   13,   14,   35,   34
  14,  203,  204,  225,  224,   14,   15,   36,   35
  15,  204,  205,  226,  225,   15,   16,   37,   36
  16,  205,  206,  227,  226,   16,   17,   38,   37
  17,  206,  207,  228,  227,   17,   18,   39,   38
  18,  207,  208,  229,  228,   18,   19,   40,   39
  19,  208,  209,  230,  229,   19,   20,   41,   40
  20,  209,  210,  231,  230,   20,   21,   42,   41
** ... 3180 like lines cut
*Nset, nset=Set-7, generate
    1,  3969,     1
*Elset, elset=Set-7, generate
    1,  3200,     1
** Section: Section-1
*Solid Section, elset=Set-7, material=Material-1
,
*End Part
**  
**
** ASSEMBLY
**
*Assembly, name=Assembly
**  
*Instance, name=Part-1-1, part=Part-1
*End Instance
**  
*Nset, nset=BOTTOM, instance=Part-1-1, generate
   21,  3969,    21
*Elset, elset=BOTTOM, instance=Part-1-1, generate
   20,  3200,    20
*Nset, nset=TOP, instance=Part-1-1, generate
    1,  3949,    21
*Elset, elset=TOP, instance=Part-1-1, generate
    1,  3181,    20
*End Assembly
** 
** MATERIALS
** 
*Material, name=Material-1
*Elastic
 1e+09, 0.3
** ----------------------------------------------------------------
** 
** STEP: Step-1
** 
*Step, name=Step-1, nlgeom=NO
*Static
1., 1., 1e-05, 1.
** 
** BOUNDARY CONDITIONS
** 
** Name: BC-1 Type: Symmetry/Antisymmetry/Encastre
*Boundary
BOTTOM, ENCASTRE
** Name: BC-2 Type: Displacement/Rotation
*Boundary
TOP, 2, 2, -0.001
** 
** OUTPUT REQUESTS
** 
*Restart, write, frequency=0
** 
** FIELD OUTPUT: F-Output-1
** 
*Output, field, variable=PRESELECT
** 
** HISTORY OUTPUT: H-Output-1
** 
*Output, history, variable=PRESELECT
*End Step
