*Node
      1,          0.0800,          0.0000,          0.0200
      2,          0.0775,          0.0000,          0.0200
      3,          0.0750,          0.0000,          0.0200
      4,          0.0725,          0.0000,          0.0200
      5,          0.0700,          0.0000,          0.0200
      6,          0.0675,          0.0000,          0.0200
      7,          0.0650,          0.0000,          0.0200
      8,          0.0625,          0.0000,          0.0200
      9,          0.0600,          0.0000,          0.0200
      10,          0.0575,          0.0000,          0.0200
      11,          0.0550,          0.0000,          0.0200
      12,          0.0525,          0.0000,          0.0200
      13,          0.0500,          0.0000,          0.0200
      14,          0.0475,          0.0000,          0.0200
      15,          0.0450,          0.0000,          0.0200
      16,          0.0425,          0.0000,          0.0200
      17,          0.0400,          0.0000,          0.0200
      18,          0.0375,          0.0000,          0.0200
      19,          0.0350,          0.0000,          0.0200
      20,          0.0325,          0.0000,          0.0200
** ... 6217 like lines cut
*Element, type=C3D8
   1,  298,  299,  332,  331,    1,    2,   35,   34
   2,  299,  300,  333,  332,    2,    3,   36,   35
   3,  300,  301,  334,  333,    3,    4,   37,   36
   4,  301,  302,  335,  334,    4,    5,   38,   37
   5,  302,  303,  336,  335,    5,    6,   39,   38
   6,  303,  304,  337,  336,    6,    7,   40,   39
   7,  304,  305,  338,  337,    7,    8,   41,   40
   8,  305,  306,  339,  338,    8,    9,   42,   41
   9,  306,  307,  340,  339,    9,   10,   43,   42
  10,  307,  308,  341,  340,   10,   11,   44,   43
  11,  308,  309,  342,  341,   11,   12,   45,   44
  12,  309,  310,  343,  342,   12,   13,   46,   45
  13,  310,  311,  344,  343,   13,   14,   47,   46
  14,  311,  312,  345,  344,   14,   15,   48,   47
  15,  312,  313,  346,  345,   15,   16,   49,   48
  16,  313,  314,  347,  346,   16,   17,   50,   49
  17,  314,  315,  348,  347,   17,   18,   51,   50
  18,  315,  316,  349,  348,   18,   19,   52,   51
  19,  316,  317,  350,  349,   19,   20,   53,   52
  20,  317,  318,  351,  350,   20,   21,   54,   53
** ... 5100 like lines cut
*FEM Nodes
All
*FEM Elements
All
*SOLVER, IMPLICIT STATIC
*ACTIVATION
*Scale Factor
10000
*Outputs
100
All, 8
*Time
0,0.0015
*Absolute Tolerance 
1e-6
*Relative Tolerance
1e-4
*TANGENT BY PERTURBATION
1e-8
*BOUNDARY, TYPE=DISPLACEMENT INST
265,0,0
265,1,0
265,2,0
265,3,0
266,0,0
266,1,0
266,2,0
266,3,0
267,0,0
267,1,0
267,2,0
267,3,0
268,0,0
268,1,0
268,2,0
268,3,0
269,0,0
269,1,0
269,2,0
269,3,0
** ... 2752 like lines cut
*PETSC_SOLVER, lu
*END SOLVER
*FLUX EXTRADOF, TYPE=VOLUMETRIC HEAT FLUX
1e-05, 2e-05, 4814804965
3223
3224
3255
3256
3287
3288
3319
3320
3479
3480
3511
3512
3543
3544
3575
3576
*FLUX EXTRADOF, TYPE=VOLUMETRIC HEAT FLUX
0.00051, 0.00052, 4614804965
3095
3096
3127
3128
3159
3160
3191
3192
3351
3352
3383
3384
3415
3416
3447
3448
*FLUX EXTRADOF, TYPE=VOLUMETRIC HEAT FLUX
2e-05, 3e-05, 4614804965
3221
3222
3253
3254
3285
3286
3317
3318
3477
3478
3509
3510
3541
3542
3573
3574
*FLUX EXTRADOF, TYPE=VOLUMETRIC HEAT FLUX
0.00052, 0.00053, 4314804965
3093
3094
3125
3126
3157
3158
3189
3190
3349
3350
3381
3382
3413
3414
3445
3446
*FLUX EXTRADOF, TYPE=VOLUMETRIC HEAT FLUX
5e-05, 6e-05, 4614804965
2707
2708
2739
2740
2771
2772
2803
2804
2963
2964
2995
2996
3027
3028
3059
3060
*FLUX EXTRADOF, TYPE=VOLUMETRIC HEAT FLUX
0.00055, 0.00056, 4314804965
2579
2580
2611
2612
2643
2644
2675
2676
2835
2836
2867
2868
2899
2900
2931
2932
*FLUX EXTRADOF, TYPE=VOLUMETRIC HEAT FLUX
6e-05, 7e-05, 4614804965
2195
2196
2227
2228
2259
2260
2291
2292
2451
2452
2483
2484
2515
2516
2547
2548
*FLUX EXTRADOF, TYPE=VOLUMETRIC HEAT FLUX
0.00056, 0.00057, 4314804965
2067
2068
2099
2100
2131
2132
2163
2164
2323
2324
2355
2356
2387
2388
2419
2420
*FLUX EXTRADOF, TYPE=VOLUMETRIC HEAT FLUX
9e-05, 0.0001, 4614804965
1685
1686
1717
1718
1749
1750
1781
1782
1941
1942
1973
1974
2005
2006
2037
2038
*FLUX EXTRADOF, TYPE=VOLUMETRIC HEAT FLUX
0.00059, 0.0006, 4314804965
1557
1558
1589
1590
1621
1622
1653
1654
1813
1814
1845
1846
1877
1878
1909
1910
*FLUX EXTRADOF, TYPE=VOLUMETRIC HEAT FLUX
0.0001, 0.00011, 4614804965
1687
1688
1719
1720
1751
1752
1783
1784
1943
1944
1975
1976
2007
2008
2039
2040
*FLUX EXTRADOF, TYPE=VOLUMETRIC HEAT FLUX
0.0006, 0.00061, 4214804965
1559
1560
1591
1592
1623
1624
1655
1656
1815
1816
1847
1848
1879
1880
1911
1912
*FLUX EXTRADOF, TYPE=VOLUMETRIC HEAT FLUX
0.00013, 0.00014, 4614804965
2201
2202
2233
2234
2265
2266
2297
2298
2457
2458
2489
2490
2521
2522
2553
2554
*FLUX EXTRADOF, TYPE=VOLUMETRIC HEAT FLUX
0.00063, 0.00064, 4314804965
2073
2074
2105
2106
2137
2138
2169
2170
2329
2330
2361
2362
2393
2394
2425
2426
*FLUX EXTRADOF, TYPE=VOLUMETRIC HEAT FLUX
0.00014, 0.00015, 4614804965
2713
2714
2745
2746
2777
2778
2809
2810
2969
2970
3001
3002
3033
3034
3065
3066
*FLUX EXTRADOF, TYPE=VOLUMETRIC HEAT FLUX
0.00064, 0.00065, 4214804965
2585
2586
2617
2618
2649
2650
2681
2682
2841
2842
2873
2874
2905
2906
2937
2938
*FLUX EXTRADOF, TYPE=VOLUMETRIC HEAT FLUX
0.0002, 0.00021, 4614804965
3213
3214
3245
3246
3277
3278
3309
3310
3469
3470
3501
3502
3533
3534
3565
3566
*FLUX EXTRADOF, TYPE=VOLUMETRIC HEAT FLUX
0.0007, 0.00071, 4614804965
3085
3086
3117
3118
3149
3150
3181
3182
3341
3342
3373
3374
3405
3406
3437
3438
*FLUX EXTRADOF, TYPE=VOLUMETRIC HEAT FLUX
0.00022, 0.00023, 4614804965
2699
2700
2731
2732
2763
2764
2795
2796
2955
2956
2987
2988
3019
3020
3051
3052
*FLUX EXTRADOF, TYPE=VOLUMETRIC HEAT FLUX
0.00072, 0.00073, 4314804965
2571
2572
2603
2604
2635
2636
2667
2668
2827
2828
2859
2860
2891
2892
2923
2924
*FLUX EXTRADOF, TYPE=VOLUMETRIC HEAT FLUX
0.00023, 0.00024, 4614804965
2185
2186
2217
2218
2249
2250
2281
2282
2441
2442
2473
2474
2505
2506
2537
2538
*FLUX EXTRADOF, TYPE=VOLUMETRIC HEAT FLUX
0.00073, 0.00074, 4314804965
2057
2058
2089
2090
2121
2122
2153
2154
2313
2314
2345
2346
2377
2378
2409
2410
*FLUX EXTRADOF, TYPE=VOLUMETRIC HEAT FLUX
0.00024, 0.00025, 4614804965
1671
1672
1703
1704
1735
1736
1767
1768
1927
1928
1959
1960
1991
1992
2023
2024
*FLUX EXTRADOF, TYPE=VOLUMETRIC HEAT FLUX
0.00074, 0.00075, 4114804965
1543
1544
1575
1576
1607
1608
1639
1640
1799
1800
1831
1832
1863
1864
1895
1896
*FLUX EXTRADOF, TYPE=VOLUMETRIC HEAT FLUX
0.00030, 0.00031, 4614804965
1677
1678
1709
1710
1741
1742
1773
1774
1933
1934
1965
1966
1997
1998
2029
2030
*FLUX EXTRADOF, TYPE=VOLUMETRIC HEAT FLUX
0.00080, 0.00081, 4314804965
1549
1550
1581
1582
1613
1614
1645
1646
1805
1806
1837
1838
1869
1870
1901
1902
*FLUX EXTRADOF, TYPE=VOLUMETRIC HEAT FLUX
0.00031, 0.00032, 4614804965
2187
2188
2219
2220
2251
2252
2283
2284
2443
2444
2475
2476
2507
2508
2539
2540
*FLUX EXTRADOF, TYPE=VOLUMETRIC HEAT FLUX
0.00082, 0.00083, 4314804965
2059
2060
2091
2092
2123
2124
2155
2156
2315
2316
2347
2348
2379
2380
2411
2412
*FLUX EXTRADOF, TYPE=VOLUMETRIC HEAT FLUX
0.00032, 0.00033, 4614804965
2697
2698
2729
2730
2761
2762
2793
2794
2953
2954
2985
2986
3017
3018
3049
3050
*FLUX EXTRADOF, TYPE=VOLUMETRIC HEAT FLUX
0.00083, 0.00084, 4314804965
2569
2570
2601
2602
2633
2634
2665
2666
2825
2826
2857
2858
2889
2890
2921
2922
*FLUX EXTRADOF, TYPE=VOLUMETRIC HEAT FLUX
0.00033, 0.00034, 4614804965
3207
3208
3239
3240
3271
3272
3303
3304
3463
3464
3495
3496
3527
3528
3559
3560
*FLUX EXTRADOF, TYPE=VOLUMETRIC HEAT FLUX
0.00084, 0.00085, 4014804965
3079
3080
3111
3112
3143
3144
3175
3176
3335
3336
3367
3368
3399
3400
3431
3432
*INITIAL CONDITIONS EXTRADOF
298
*MATERIAL, name=mat1
*Density
5487E-12
*3DPrinting-St-Venant-Kirchhoff-Thermoelasticity
7400E-12, 1913E-12, 20E3, 5E3, 145736, -11.441, -140736, -54.155, 0.45, 0.3, 0.0001141, 0.15, 0.08, 1533, -4.20712E-8, 13E-6, 298, 298, 1609, 1400
*ExtraDof
*3DprintingTemperatureCoupling
435E6, 720E6, 187E3, 186E3,-5643.34, 14976356,-8767013E3,-139607, 420461946, -314377292E3, 3.5, 6, 29.6, 8.9, 0.003561, 0.0387, 0.0157, 298, 1000, 1400, 1609
*List of Elements
All
*INITINTVARS
1,1,0.0005
2,1,0.0005
3,1,0.0005
4,1,0.0005
5,1,0.0005
6,1,0.0005
7,1,0.0005
8,1,0.0005
9,1,0.0005
10,1,0.0005
11,1,0.0005
12,1,0.0005
13,1,0.0005
14,1,0.0005
15,1,0.0005
16,1,0.0005
17,1,0.0005
18,1,0.0005
19,1,0.0005
20,1,0.0005
** ... 5100 like lines cut
*END
