*Node
1,0.1037627978874683,0.02575471830608157
2,0.1042509440183902,0.02419951314618764
3,0.1029510363417395,0.02490183041212769
4,0.08668922372390654,0.05407243817667934
5,0.0859526914379225,0.05293216015329295
6,0.08543805045493121,0.05383176542049348
7,0.06069415866622936,0.09554303010601617
8,0.05901818637680071,0.09433351641136853
9,0.05875888229796349,0.09694731998531669
10,0.06457786541144878,0.08911023405349679
11,0.06563815620487096,0.09083800914695758
12,0.06607048903542738,0.08824876098403558
13,0.1596004787956569,0.004134216111158223
14,0.160399378711226,0.009195356361442749
15,0.1640249316079213,0.006392904714349478
16,0.06762458573408275,0.08957060617218245
17,0.03957819524720834,0.1066393964299909
18,0.03767655012221009,0.1075258947820959
19,0.04025983199315723,0.1087091949857384
20,0.5936851026274198,0.257640346232376
** ... 4310 like lines cut
*Element, type=CPS3
1,1,2,3
2,4,5,6
3,7,8,9
4,10,11,12
5,13,14,15
6,11,16,12
7,17,18,19
8,20,21,22
9,23,24,25
10,26,27,28
11,29,30,31
12,32,33,34
13,35,36,37
14,38,39,40
15,41,42,43
16,44,45,46
17,47,48,49
18,50,51,52
19,53,54,55
20,56,57,58
** ... 8296 like lines cut
*FEM Nodes
All
*FEM Elements
All
*SOLVER, IMPLICIT STATIC
*Number Of Steps
100
*Outputs
1000
All,max
*Time
0,10000
*BOUNDARY, TYPE=DISPLACEMENT INST
4257,0,0
129,0,0
4240,0,0
3509,0,0
4259,0,0
3172,0,0
3173,0,0
2853,0,0
3142,0,0
2733,0,0
3121,0,0
4312,0,0
3115,0,0
3116,0,0
3128,0,0
3129,0,0
2825,0,0
3136,0,0
2838,0,0
3159,0,0
** ... 8799 like lines cut
*END SOLVER
*MATERIAL, name=Mat1
*Density
2700
*Linear-Elastic
70000.0,0.3,PlaneStrain
*ExtraDof
*Temperature
0.00091,0,0.000237,0,293.0,293.0,293.0
*List of Elements
All
*INITIAL CONDITIONS EXTRADOF
293.0
*END