*Node
1,0,0,0
2,0.03333333333326933,0,0
3,0.03333333333330311,0.01666666666671188,0
4,0.03333333333330311,0.01666666666671188,0.01
5,0.03333333333326933,0,0.01
6,0,0,0.01
7,0.03333333333330311,0.01666666666671188,0.02
8,0.03333333333326933,0,0.02
9,0,0,0.02
10,0.03333333333330311,0.01666666666671188,0.03
11,0.03333333333326933,0,0.03
12,0,0,0.03
13,0.03333333333330311,0.01666666666671188,0.04
14,0.03333333333326933,0,0.04
15,0,0,0.04
16,0,0.01666666666671188,0
17,0,0.01666666666671188,0.01
18,0,0.01666666666671188,0.02
19,0,0.01666666666671188,0.03
20,0,0.01666666666671188,0.04
** ... 1065 like lines cut
*Element, type=C3D4
1,1,2,3,4
2,5,6,4,2
3,2,6,4,1
4,6,5,4,7
5,8,9,7,5
6,5,9,7,6
7,9,8,7,10
8,11,12,10,8
9,8,12,10,9
10,12,11,10,13
11,14,15,13,11
12,11,15,13,12
13,3,16,1,4
14,17,4,6,16
15,16,4,6,1
16,4,17,6,7
17,18,7,9,17
18,17,7,9,6
19,7,18,9,10
20,19,10,12,18
** ... 4300 like lines cut
*FEM Nodes
All
*FEM Elements
All
*SOLVER, IMPLICIT
*Number Of Steps
70
*Scale Factor
500
*Outputs
1000
All,max
*Time
0,4
*BOUNDARY, TYPE=DISPLACEMENT RAMP
1,0,0
66,0,0
70,0,0
15,0,0
67,0,0
68,0,0
69,0,0
6,0,0
9,0,0
12,0,0
57,0,0
58,0,0
59,0,0
47,0,0
48,0,0
49,0,0
37,0,0
38,0,0
39,0,0
27,0,0
** ... 85 like lines cut
*EXTRACTION, NODE
TipDisplacement,Unknown,Mean,0
1081
*EXTRACTION, NODE
TipDisplacement,Unknown,Mean,1
1081
*EXTRACTION, NODE
TipDisplacement,Unknown,Mean,2
1081
*EXTRACTION, NODE
TipInternalForce,InternalForce,Sum,0
1051
1081
1058
1060
1085
1077
1078
1079
1072
1073
1074
1067
1082
1083
1084
1068
1069
1062
1063
1064
** ... 15 like lines cut
*EXTRACTION, NODE
TipInternalForce,InternalForce,Sum,1
1051
1081
1058
1060
1085
1077
1078
1079
1072
1073
1074
1067
1082
1083
1084
1068
1069
1062
1063
1064
** ... 15 like lines cut
*EXTRACTION, NODE
TipInternalForce,InternalForce,Sum,2
1051
1081
1058
1060
1085
1077
1078
1079
1072
1073
1074
1067
1082
1083
1084
1068
1069
1062
1063
1064
** ... 15 like lines cut
*EXTRACTION, NODE
TipExternalForce,ExternalForce,Sum,0
1051
1081
1058
1060
1085
1077
1078
1079
1072
1073
1074
1067
1082
1083
1084
1068
1069
1062
1063
1064
** ... 15 like lines cut
*EXTRACTION, NODE
TipExternalForce,ExternalForce,Sum,1
1051
1081
1058
1060
1085
1077
1078
1079
1072
1073
1074
1067
1082
1083
1084
1068
1069
1062
1063
1064
** ... 15 like lines cut
*EXTRACTION, NODE
TipExternalForce,ExternalForce,Sum,2
1051
1081
1058
1060
1085
1077
1078
1079
1072
1073
1074
1067
1082
1083
1084
1068
1069
1062
1063
1064
** ... 15 like lines cut
*EXTRACTION, NODE
RootInternalForce,InternalForce,Sum,0
1
66
70
15
67
68
69
6
9
12
57
58
59
47
48
49
37
38
39
27
** ... 15 like lines cut
*EXTRACTION, NODE
RootInternalForce,InternalForce,Sum,1
1
66
70
15
67
68
69
6
9
12
57
58
59
47
48
49
37
38
39
27
** ... 15 like lines cut
*EXTRACTION, NODE
RootInternalForce,InternalForce,Sum,2
1
66
70
15
67
68
69
6
9
12
57
58
59
47
48
49
37
38
39
27
** ... 15 like lines cut
*EXTRACTION, NODE
RootExternalForce,ExternalForce,Sum,0
1
66
70
15
67
68
69
6
9
12
57
58
59
47
48
49
37
38
39
27
** ... 15 like lines cut
*EXTRACTION, NODE
RootExternalForce,ExternalForce,Sum,1
1
66
70
15
67
68
69
6
9
12
57
58
59
47
48
49
37
38
39
27
** ... 15 like lines cut
*EXTRACTION, NODE
RootExternalForce,ExternalForce,Sum,2
1
66
70
15
67
68
69
6
9
12
57
58
59
47
48
49
37
38
39
27
** ... 15 like lines cut
*EXTRACTION, ELEMENT
DeforEnergy,DEFO_ENERGY,Sum
All
*EXTRACTION, ELEMENT
kineEnergy,KIN_ENERGY,Sum
All
*EXTRACTION, ELEMENT
extEnergy,EXTERNAL_ENERGY,Sum
All
*END SOLVER
*BOUNDARY, TYPE=PRESSURE RAMP
0,1,10,3
4225
4228
4231
4234
4249
4252
4255
4258
4273
4276
4279
4282
4297
4300
4303
4177
4306
4180
4183
** ... 5 like lines cut
*BOUNDARY, TYPE=PRESSURE RAMP
0,1,10,4
4227
4230
4233
4236
4251
4254
4257
4260
4275
4278
4281
4284
4299
4302
4305
4178
4308
4181
4184
** ... 5 like lines cut
*MATERIAL, name=Mat1
*Density
1
*Linear-Elastic
1000,0.3
*List of Elements
All
*END