*Node
      1,           0.,           1.
      2,           0.,  0.949999988
      3,           0.,  0.899999976
      4,           0.,  0.850000024
      5,           0.,  0.800000012
      6,           0.,         0.75
      7,           0.,  0.699999988
      8,           0.,  0.649999976
      9,           0.,  0.600000024
     10,           0.,  0.550000012
     11,           0.,          0.5
     12,           0.,  0.449999988
     13,           0.,  0.400000006
     14,           0.,  0.349999994
     15,           0.,  0.300000012
     16,           0.,         0.25
     17,           0.,  0.200000003
     18,           0.,  0.150000006
     19,           0.,  0.100000001
     20,           0., 0.0500000007
** ... 253 like lines cut
*Element, type=CPS3
 1,   1,   2,  23
  2,  23,  22,   1
  3,   2,   3,  24
  4,  24,  23,   2
  5,   3,   4,  25
  6,  25,  24,   3
  7,   4,   5,  26
  8,  26,  25,   4
  9,   5,   6,  27
 10,  27,  26,   5
 11,   6,   7,  28
 12,  28,  27,   6
 13,   7,   8,  29
 14,  29,  28,   7
 15,   8,   9,  30
 16,  30,  29,   8
 17,   9,  10,  31
 18,  31,  30,   9
 19,  10,  11,  32
 20,  32,  31,  10
** ... 460 like lines cut
*FEM Nodes
All
*FEM Elements
All
*SOLVER, IMPLICIT STATIC
*Outputs
500
All, max
*Time
0, 15000
*Number Of Steps
15
*BOUNDARY, TYPE=DISPLACEMENT INST
1, 0, 0
273, 2, 100
252, 2, 100
231, 2, 100
210, 2, 100
189, 2, 100
168, 2, 100
147, 2, 100
126, 2, 100
105, 2, 100
84, 2, 100
63, 2, 100
42, 2, 100
21, 2, 100
*FLUX EXTRADOF, TYPE=CONVECTION
0, 15000, 750, 0, 1
480
478
476
474
472
470
468
466
464
462
460
458
456
454
452
450
448
446
444
442
*FLUX EXTRADOF, TYPE=CONVECTION
0, 15000, 750, 0, 2
442
402
362
322
282
242
202
162
122
82
42
2
*END SOLVER
*MATERIAL, name=Region1
*Density
7850
*HyperElastic, Neo-Hookean
1E7, 0.4
All
*ExtraDof
*Temperature
434, 0, 52, 0, 0, 0, 0
*List of Elements
All
*END
