*Node
1,241.290039,458.536377
2,247.398392,439.525696
3,258.744934,414.795868
4,266.396362,399.053406
5,268.797577,391.936249
6,269.127228,385.341217
7,267.465698,374.0
8,264.53833,361.481842
9,260.671539,351.072418
10,256.14093,343.22699
11,251.171188,338.669098
12,244.117584,336.512939
13,231.323273,333.880463
14,201.462372,327.853119
15,176.326157,321.12326
16,152.944366,312.82962
17,128.5,302.074005
18,110.918182,292.962189
19,96.0814972,283.784027
20,82.9696045,273.870972
** ... 444 like lines cut
*Element, type=CPS3
1,170,122,1
2,154,2,3
3,277,235,147
4,248,240,209
5,127,88,89
6,127,114,93
7,127,93,94
8,114,90,92
9,91,92,90
10,133,4,105
11,150,133,105
12,255,213,182
13,134,6,112
14,112,6,7
15,118,112,7
16,118,8,110
17,292,209,255
18,121,80,81
19,293,213,254
20,201,83,144
** ... 805 like lines cut
*FEM Nodes
All
*FEM Elements
All
*SOLVER, IMPLICIT STATIC
*Scale Factor
1
*ADAPTIVE TIME STEP
POWER,6,0.5
*Max Time Step
0.4
*TIME STEPPING PLAN
1,5
2,3
5,10
*Outputs
500
All, 0
*Time
0,5
*BOUNDARY, TYPE=DISPLACEMENT RAMP
40,1,0
41,1,0
42,1,0
43,1,0
44,1,0
59,1,0
60,1,0
61,1,0
62,1,0
63,1,0
40,0,0
41,0,0
42,0,0
43,0,0
44,0,0
59,0,0
60,0,0
61,0,0
62,0,0
63,0,0
** ... 6 like lines cut
*END SOLVER
*MATERIAL, name=All
*Density
1000
*HyperElastic, St-Venant-Kirchhoff
1e6,0.3
*List of Elements
All
*END
