*Node
      1,          5.00,          5.00,          2.00
      2,          5.00,          4.75,          2.00
      3,          5.00,          4.50,          2.00
      4,          5.00,          4.25,          2.00
      5,          5.00,          4.00,          2.00
      6,          5.00,          3.75,          2.00
      7,          5.00,          3.50,          2.00
      8,          5.00,          3.25,          2.00
      9,          5.00,          3.00,          2.00
      10,          5.00,          2.75,          2.00
      11,          5.00,          2.50,          2.00
      12,          5.00,          2.25,          2.00
      13,          5.00,          2.00,          2.00
      14,          5.00,          1.75,          2.00
      15,          5.00,          1.50,          2.00
      16,          5.00,          1.25,          2.00
      17,          5.00,          1.00,          2.00
      18,          5.00,          0.75,          2.00
      19,          5.00,          0.50,          2.00
      20,          5.00,          0.25,          2.00
** ... 3949 like lines cut
*Element, type=C3D4
1, 190, 212, 211, 23
2, 190, 191, 212, 23
3, 211, 190, 23, 22
4, 190, 1, 23, 22
5, 190, 1, 2, 23
6, 191, 190, 2, 23
7, 191, 213, 212, 24
8, 191, 192, 213, 24
9, 212, 191, 24, 23
10, 191, 2, 24, 23
11, 191, 2, 3, 24
12, 192, 191, 3, 24
13, 192, 214, 213, 25
14, 192, 193, 214, 25
15, 213, 192, 25, 24
16, 192, 3, 25, 24
17, 192, 3, 4, 25
18, 193, 192, 4, 25
19, 193, 215, 214, 26
20, 193, 194, 215, 26
** ... 19180 like lines cut
*MM Nodes
All
*MM Elements
All
*NSET=c1
*CPU=1
 1901
 1902
 1903
 1904
 1905
 1906
 1907
 1908
 1909
 1910
 1911
 1922
 1923
 1924
 1925
 1926
 1927
 1928
 1929
 1930
** ... 1069 like lines cut
*NSET=c2
*CPU=2
 1891
 1892
 1893
 1894
 1895
 1896
 1897
 1898
 1899
 1900
 1901
 1912
 1913
 1914
 1915
 1916
 1917
 1918
 1919
 1920
** ... 1069 like lines cut
*NSET=c3
*CPU=3
   11
   12
   13
   14
   15
   16
   17
   18
   19
   20
   21
   32
   33
   34
   35
   36
   37
   38
   39
   40
** ... 1069 like lines cut
*NSET=c4
*CPU=4
    1
    2
    3
    4
    5
    6
    7
    8
    9
   10
   11
   22
   23
   24
   25
   26
   27
   28
   29
   30
** ... 1069 like lines cut
*ELSET=c1
*CPU=1
  9661
  9662
  9663
  9664
  9665
  9666
  9667
  9668
  9669
  9670
  9671
  9672
  9673
  9674
  9675
  9676
  9677
  9678
  9679
  9680
** ... 4780 like lines cut
*ELSET=c2
*CPU=2
  9601
  9602
  9603
  9604
  9605
  9606
  9607
  9608
  9609
  9610
  9611
  9612
  9613
  9614
  9615
  9616
  9617
  9618
  9619
  9620
** ... 4780 like lines cut
*ELSET=c3
*CPU=3
   61
   62
   63
   64
   65
   66
   67
   68
   69
   70
   71
   72
   73
   74
   75
   76
   77
   78
   79
   80
** ... 4780 like lines cut
*ELSET=c4
*CPU=4
    1
    2
    3
    4
    5
    6
    7
    8
    9
   10
   11
   12
   13
   14
   15
   16
   17
   18
   19
   20
** ... 4780 like lines cut
*SOLVER, IMPLICIT STATIC
*Scale Factor
10000
*Outputs
100
All, max
*Time
0,1
*Number Of Steps
3
*STIFFNESS MATRIX, TYPE=BEGINNING
*BOUNDARY, TYPE=DISPLACEMENT RAMP
21,0,0
21,1,0
21,2,0
42,0,0
42,1,0
42,2,0
63,0,0
63,1,0
63,2,0
84,0,0
84,1,0
84,2,0
105,0,0
105,1,0
105,2,0
126,0,0
126,1,0
126,2,0
147,0,0
147,1,0
** ... 736 like lines cut
*END SOLVER
*MATERIAL, name=mat1
*Density
7000
*HyperElastic, St-Venant-Kirchhoff
1e9,0.3
*List of Elements
All
*END
