*Nodes
  1,  -3e-06, -1.5e-06
  2,  -3e-06, -6e-07
  3,  -2.09091e-06, -1.5e-06
  4,  -1.18182e-06, -1.5e-06
  5,  -2.72727e-07, -1.5e-06
  6,  6.36364e-07, -1.5e-06
  7,  1.54545e-06, -1.5e-06
  8,  -3e-06, -2e-06
  9,  -2.09091e-06, -2e-06
  10,  -1.18182e-06, -2e-06
  11,  -2.72727e-07, -2e-06
  12,  6.36364e-07, -2e-06
  13,  1.54545e-06, -2e-06
  14,  -3e-06, 1.2e-06
  15,  -3e-06, 3e-07
  16,  -3e-06, 2.1e-06
  17,  -3e-06, 3.9e-06
  18,  -3e-06, 3e-06
  19,  -3e-06, 5.7e-06
  20,  -3e-06, 4.8e-06
** ... 456 like lines cut
*Element, type=CPS3
  1, 227, 137, 219
  2, 218, 217, 126
  3, 216, 215, 124
  4, 215, 123, 124
  5, 285, 209, 238
  6, 211, 101, 102
  7, 286, 205, 237
  8, 207,  98,  99
  9, 283, 202, 201
 10, 203,  80,  81
 11, 306, 264, 243
 12, 199,  59,  78
 13, 428, 427, 380
 14, 195,  56,  57
 15, 319, 279, 241
 16, 191,  38,  54
 17, 321, 263, 316
 18, 263, 256, 188
 19, 173, 171,  46
 20, 172,  35, 170
** ... 840 like lines cut
*FEM Nodes
All
*FEM Elements
All
*SOLVER, IMPLICIT STATIC
*Scale Factor
1000000
*Time
0, 2500
*Outputs
1000000
All, 15
*BOUNDARY, TYPE=DISPLACEMENT RAMP
  1, 0, 0
  2, 0, 0
  8, 0, 0
 14, 0, 0
 15, 0, 0
 16, 0, 0
 17, 0, 0
 18, 0, 0
 19, 0, 0
 20, 0, 0
 21, 0, 0
 27, 0, 0
 28, 0, 0
  1, 1, 0
  2, 1, 0
  8, 1, 0
 14, 1, 0
 15, 1, 0
 16, 1, 0
 17, 1, 0
** ... 6 like lines cut
*PETSC_SOLVER, lu
*END SOLVER
*BOUNDARY, TYPE=PRESSURE RAMP
0, 100, 1, 1
84
*BOUNDARY, TYPE=PRESSURE INST
100, 2500, 1, 1
84
*BOUNDARY, TYPE=PRESSURE RAMP
0, 100, 1, 2
224
217
215
213
76
230
234
211
*BOUNDARY, TYPE=PRESSURE INST
100, 2500, 1, 2
224
217
215
213
76
230
234
211
*BOUNDARY, TYPE=PRESSURE RAMP
0, 100, 1, 3
795
75
729
*BOUNDARY, TYPE=PRESSURE INST
100, 2500, 1, 3
795
75
729
*MATERIAL, name=membraneCortex
*Density
1000
*ViscoMechContractAxialGrowth
158
1
73, 73
1000
1, 0.0295, 0.0265, 1.1101, 0.00001, 30, 1, 0
*List of Elements
729
730
731
732
733
734
735
736
737
738
739
740
741
742
743
744
745
746
747
748
** ... 112 like lines cut
*MATERIAL, name=axonShaft
*Density
1000
*ViscoMechAxialGrowth
250
1
57.5, 57.5
1000E3
1, 0.0295, 0.0265, 1.1101, 1, 0
*List of Elements
1
2
3
4
5
6
7
8
9
10
11
12
13
14
15
16
17
18
19
20
** ... 708 like lines cut
*END
