*Node
1,1,3,0
2,0.499999999998694,3,0
3,0.7641392341388633,2.819148939086864,0
4,0.7641392341388633,2.819148939086864,0.1
5,0.499999999998694,3,0.1
6,1,3,0.1
7,0.1740159117598499,2.518859830681576,0
8,0.1300332084928318,2.316372357031622,0
9,0.303834392196127,2.368266197081406,0
10,0.303834392196127,2.368266197081406,0.1
11,0.1300332084928318,2.316372357031622,0.1
12,0.1740159117598499,2.518859830681576,0.1
13,0,2.420922764257017,0
14,0,2.420922764257017,0.1
15,0.2299246994518014,2.223097010853909,0
16,0.2299246994518014,2.223097010853909,0.1
17,0,3,0
18,0.2119691892831686,2.77155463679559,0
19,0.2119691892831686,2.77155463679559,0.1
20,0,3,0.1
** ... 268 like lines cut
*Element, type=C3D4
1,1,2,3,4
2,5,6,4,1
3,5,1,4,2
4,7,8,9,10
5,11,12,10,7
6,11,7,10,8
7,7,13,8,11
8,14,12,11,7
9,14,7,11,13
10,9,8,15,16
11,11,10,16,8
12,8,9,10,16
13,2,17,18,19
14,20,5,19,2
15,20,2,19,17
16,21,15,22,23
17,16,24,23,21
18,16,21,23,15
19,25,26,27,28
20,29,30,28,25
** ... 736 like lines cut
*FEM Nodes
All
*FEM Elements
All
*SOLVER, IMPLICIT STATIC
*Number Of Steps
30
*Outputs
1000
All,10
*Time
0,1
*BOUNDARY, TYPE=DISPLACEMENT RAMP
267,0,0
97,0,0
17,0,0
98,0,0
20,0,0
268,0,0
273,0,0
211,0,0
203,0,0
204,0,0
159,0,0
201,0,0
179,0,0
225,0,0
52,0,0
51,0,0
13,0,0
63,0,0
53,0,0
54,0,0
** ... 314 like lines cut
*EXTRACTION, NODE
disp,Unknown,Mean,1
5
1
17
20
6
2
*EXTRACTION, NODE
force,InternalForce,Sum,1
5
1
17
20
6
2
*END SOLVER
*MATERIAL, name=Mat1
*Density
1
*J2Plasticity
20000.0,0.3,21
SwiftISO,100.0,0.005,0.1
*List of Elements
All
*END