*Node
      1,           0.,           0.
      2,           2.,           0.
      3,           4.,           0.
      4,           6.,           0.
      5,           8.,           0.
      6,          10.,           0.
      7,          12.,           0.
      8,          14.,           0.
      9,          16.,           0.
     10,          18.,           0.
     11,          20.,           0.
     12,          22.,           0.
     13,          24.,           0.
     14,          26.,           0.
     15,          28.,           0.
     16,          30.,           0.
     17,          32.,           0.
     18,          34.,           0.
     19,          36.,           0.
     20,          38.,           0.
** ... 32 like lines cut
*Element, type=CPS3
 1,  1,  2, 28
 2, 28, 27,  1
 3,  2,  3, 29
 4, 29, 28,  2
 5,  3,  4, 30
 6, 30, 29,  3
 7,  4,  5, 31
 8, 31, 30,  4
 9,  5,  6, 32
10, 32, 31,  5
11,  6,  7, 33
12, 33, 32,  6
13,  7,  8, 34
14, 34, 33,  7
15,  8,  9, 35
16, 35, 34,  8
17,  9, 10, 36
18, 36, 35,  9
19, 10, 11, 37
20, 37, 36, 10
** ... 30 like lines cut
*FEM Nodes
All
*FEM Elements
All
*SOLVER, IMPLICIT STATIC
*Scale Factor
0.1
*Outputs
200
All, max
*Time
0, 200
*BOUNDARY, TYPE=DISPLACEMENT RAMP
1, 0, 0
27, 0, 0
1, 1, 0
27, 1, 0
*END SOLVER
*FLUX EXTRADOF, TYPE=CURRENT INST
0,1,0.8
1
2
*MATERIAL, name=Region1
*Density
1000
*ViscoMechAxialGrowth
250
1
57.5, 57.5
1000E3
1, 0.0295, 0.0265, 1.1101, 1, 0
*ExtraDof
*FHNelec
1, 0, 0, 1, 0, 0.4, 0.4, 0.01, 0.085, 0
*List of Elements
All
*END
