*Node
	 1, 	 0.0000, 	 -6.0000
	 2, 	 3.4286, 	 -6.0000
	 3, 	 6.8571, 	 -6.0000
	 4, 	 10.2857, 	 -6.0000
	 5, 	 13.7143, 	 -6.0000
	 6, 	 17.1429, 	 -6.0000
	 7, 	 20.5714, 	 -6.0000
	 8, 	 24.0000, 	 -6.0000
	 9, 	 27.4286, 	 -6.0000
	 10, 	 30.8571, 	 -6.0000
	 11, 	 34.2857, 	 -6.0000
	 12, 	 37.7143, 	 -6.0000
	 13, 	 41.1429, 	 -6.0000
	 14, 	 44.5714, 	 -6.0000
	 15, 	 48.0000, 	 -6.0000
	 16, 	 0.0000, 	 -4.2857
	 17, 	 3.4286, 	 -4.2857
	 18, 	 6.8571, 	 -4.2857
	 19, 	 10.2857, 	 -4.2857
	 20, 	 13.7143, 	 -4.2857
** ... 100 like lines cut
*Element, type=CPS3
1, 1, 2, 17
2, 17, 16, 1
3, 2, 3, 18
4, 18, 17, 2
5, 3, 4, 19
6, 19, 18, 3
7, 4, 5, 20
8, 20, 19, 4
9, 5, 6, 21
10, 21, 20, 5
11, 6, 7, 22
12, 22, 21, 6
13, 7, 8, 23
14, 23, 22, 7
15, 8, 9, 24
16, 24, 23, 8
17, 9, 10, 25
18, 25, 24, 9
19, 10, 11, 26
20, 26, 25, 10
** ... 176 like lines cut
*FEM Nodes
All
*FEM Elements
All
*SOLVER, EXPLICIT
*Scale Factor
0.1
*Bulk viscosity
2, 3
*Outputs
5000
All, 0
*Time
0, 2.5
*BOUNDARY, TYPE=DISPLACEMENT RAMP
1, 1, 0
2, 1, 0
3, 1, 0
4, 1, 0
5, 1, 0
6, 1, 0
7, 1, 0
8, 1, 0
9, 1, 0
10, 1, 0
11, 1, 0
12, 1, 0
13, 1, 0
14, 1, 0
15, 1, 0
106, 1, 0
107, 1, 0
108, 1, 0
109, 1, 0
110, 1, 0
** ... 24 like lines cut
*END SOLVER
*SOLVER, EXPLICIT
*Scale Factor
0.1
*Outputs
5000
All, 0
*Time
2.5, 5
*BOUNDARY, TYPE=DISPLACEMENT RAMP
1, 1, 0
2, 1, 0
3, 1, 0
4, 1, 0
5, 1, 0
6, 1, 0
7, 1, 0
8, 1, 0
9, 1, 0
10, 1, 0
11, 1, 0
12, 1, 0
13, 1, 0
14, 1, 0
15, 1, 0
106, 1, 0
107, 1, 0
108, 1, 0
109, 1, 0
110, 1, 0
** ... 24 like lines cut
*END SOLVER
*SOLVER, EXPLICIT
*Scale Factor
0.1
*Bulk viscosity
3, 3
*Outputs
5000
All, 0
*Time
5, 7.5
*BOUNDARY, TYPE=DISPLACEMENT RAMP
1, 1, 0
2, 1, 0
3, 1, 0
4, 1, 0
5, 1, 0
6, 1, 0
7, 1, 0
8, 1, 0
9, 1, 0
10, 1, 0
11, 1, 0
12, 1, 0
13, 1, 0
14, 1, 0
15, 1, 0
106, 1, 0
107, 1, 0
108, 1, 0
109, 1, 0
110, 1, 0
** ... 24 like lines cut
*END SOLVER
*BOUNDARY, TYPE=PRESSURE INST
0, 1.25, -5e6, 2
195
167
139
111
83
55
27
*BOUNDARY, TYPE=PRESSURE INST
2.5, 3.75, -5e6, 2
195
167
139
111
83
55
27
*BOUNDARY, TYPE=PRESSURE INST
5, 6.25, -5e6, 2
195
167
139
111
83
55
27
*MATERIAL, name=Region1
*Density
100
*HyperElastic, St-Venant-Kirchhoff
1E9, 0.3
*List of Elements
All
*END
