*Node
      1,           0.,          0.5
      2,           0.,           0.
      3,          0.5,          0.5
      4,          0.5,           0.
      5,           1.,          0.5
      6,           1.,           0.
      7,          1.5,          0.5
      8,          1.5,           0.
      9,           2.,          0.5
     10,           2.,           0.
     11,          2.5,          0.5
     12,          2.5,           0.
     13,           3.,          0.5
     14,           3.,           0.
     15,          3.5,          0.5
     16,          3.5,           0.
     17,           4.,          0.5
     18,           4.,           0.
     19,          4.5,          0.5
     20,          4.5,           0.
** ... 102 like lines cut
*Element, type=CPS3
  1,   1,   2,   4
  2,   4,   3,   1
  3,   3,   4,   6
  4,   6,   5,   3
  5,   5,   6,   8
  6,   8,   7,   5
  7,   7,   8,  10
  8,  10,   9,   7
  9,   9,  10,  12
 10,  12,  11,   9
 11,  11,  12,  14
 12,  14,  13,  11
 13,  13,  14,  16
 14,  16,  15,  13
 15,  15,  16,  18
 16,  18,  17,  15
 17,  17,  18,  20
 18,  20,  19,  17
 19,  19,  20,  22
 20,  22,  21,  19
** ... 100 like lines cut
*FEM Nodes
All
*FEM Elements
All
*SOLVER, IMPLICIT STATIC
*Scale Factor
100
*Outputs
200
All, max
*Time
0, 1
*BOUNDARY, TYPE=DISPLACEMENT RAMP
1, 0, 0
1, 2, 100
2, 2, 100
*END SOLVER
*SOLVER, IMPLICIT STATIC
*Scale Factor
100
*Outputs
200
All, max
*Time
1, 1000
*BOUNDARY, TYPE=DISPLACEMENT RAMP
1, 0, 0
1, 2, 0
2, 2, 0
*END SOLVER
*MATERIAL, name=Region1
*Density
920
*HyperElastic, Neo-Hookean
1E7, 0.4
All
*ExtraDof
*Temperature
2.04, 0, 5, 0, 0, 0, 0
*List of Elements
All
*END
