*Node
      1, -0.0399999991, -0.0199999996,  0.600000024
      2, -0.0399999991, 0.0199999996,  0.600000024
      3, -0.0399999991, 0.0199999996,           0.
      4, -0.0399999991, -0.0199999996,           0.
      5, 0.0399999991, 0.0199999996,  0.600000024
      6, 0.0399999991, 0.0199999996,           0.
      7, 0.0399999991, -0.0199999996,           0.
      8, 0.0399999991, -0.0199999996,  0.600000024
      9, -0.0399999991,           0.,  0.600000024
     10, -0.0399999991, 0.0199999996,  0.579999983
     11, -0.0399999991, 0.0199999996,  0.560000002
     12, -0.0399999991, 0.0199999996,  0.540000021
     13, -0.0399999991, 0.0199999996,  0.519999981
     14, -0.0399999991, 0.0199999996,          0.5
     15, -0.0399999991, 0.0199999996,  0.479999989
     16, -0.0399999991, 0.0199999996,  0.460000008
     17, -0.0399999991, 0.0199999996,  0.439999998
     18, -0.0399999991, 0.0199999996,  0.419999987
     19, -0.0399999991, 0.0199999996,  0.400000006
     20, -0.0399999991, 0.0199999996,  0.379999995
** ... 592 like lines cut
*Element, type=C3D4
   1, 204, 379, 380, 381
   2, 382, 383, 384, 144
   3, 385, 386, 131, 358
   4, 387, 388, 379, 389
   5, 389, 359, 385, 130
   6, 385, 287, 130, 131
   7, 390, 391, 126, 299
   8, 392, 393, 364, 394
   9, 393, 364, 391, 125
  10, 391, 364, 126, 125
  11, 395, 272, 135, 136
  12, 396, 397, 395, 269
  13, 398, 397, 269, 395
  14, 396, 395, 136, 269
  15, 399, 400, 401, 402
  16, 403, 404, 405, 369
  17, 406, 318, 402, 400
  18,   8, 350, 260, 140
  19, 406, 400, 317, 318
  20, 407, 408, 409, 307
** ... 2304 like lines cut
*FEM Nodes
   1
   2
   5
   8
   9
  10
  11
  12
  13
  14
  15
  16
  17
  18
  19
  20
  21
  22
  23
  24
** ... 334 like lines cut
*MM Nodes
   3
   4
   6
   7
  26
  27
  28
  29
  30
  31
  32
  33
  34
  35
  36
  37
  38
  39
  40
  41
** ... 258 like lines cut
*FEM Elements
    1
    2
    3
    4
    5
    6
    7
    8
    9
   10
   11
   12
   13
   14
   18
   20
   21
   22
   29
   30
** ... 1288 like lines cut
*MM Elements
   15
   16
   17
   19
   23
   24
   25
   26
   27
   28
   33
   34
   35
   36
   37
   38
   39
   45
   46
   47
** ... 996 like lines cut
*SOLVER, IMPLICIT STATIC
*Number Of Steps
3
*Outputs
100
All,0
*Time
0, 1
*BOUNDARY, TYPE=DISPLACEMENT RAMP
   3, 0, 0
   4, 0, 0
   6, 0, 0
   7, 0, 0
  39, 0, 0
 101, 0, 0
 102, 0, 0
 103, 0, 0
 104, 0, 0
 105, 0, 0
 106, 0, 0
 107, 0, 0
 257, 0, 0
 258, 0, 0
 259, 0, 0
   3, 1, 0
   4, 1, 0
   6, 1, 0
   7, 1, 0
  39, 1, 0
** ... 40 like lines cut
*END SOLVER
*SOLVER, IMPLICIT
*Number Of Steps
10
*Outputs
1000
All, 0
*Time
1, 3
*BOUNDARY, TYPE=DISPLACEMENT RAMP
   3, 0, 0
   4, 0, 0
   6, 0, 0
   7, 0, 0
  39, 0, 0
 101, 0, 0
 102, 0, 0
 103, 0, 0
 104, 0, 0
 105, 0, 0
 106, 0, 0
 107, 0, 0
 257, 0, 0
 258, 0, 0
 259, 0, 0
   3, 1, 0
   4, 1, 0
   6, 1, 0
   7, 1, 0
  39, 1, 0
** ... 25 like lines cut
*PETSC_SOLVER, lu
*END SOLVER
*MATERIAL, name=Region1
*Density
1000
*HyperElastic, St-Venant-Kirchhoff
1E9, 0.3
*List of Elements
All
*END
