*Node
       1,           0.,           2.
      2,           0.,   1.89999998
      3,           0.,   1.79999995
      4,           0.,   1.70000005
      5,           0.,   1.60000002
      6,           0.,          1.5
      7,           0.,   1.39999998
      8,           0.,   1.29999995
      9,           0.,   1.20000005
     10,           0.,   1.10000002
     11,           0.,           1.
     12,           0.,  0.899999976
     13,           0.,  0.800000012
     14,           0.,  0.699999988
     15,           0.,  0.600000024
     16,           0.,          0.5
     17,           0.,  0.400000006
     18,           0.,  0.300000012
     19,           0.,  0.200000003
     20,           0.,  0.100000001
** ... 421 like lines cut
*Element, type=CPS3
  1,   1,   2,  23
  2,  23,  22,   1
  3,   2,   3,  24
  4,  24,  23,   2
  5,   3,   4,  25
  6,  25,  24,   3
  7,   4,   5,  26
  8,  26,  25,   4
  9,   5,   6,  27
 10,  27,  26,   5
 11,   6,   7,  28
 12,  28,  27,   6
 13,   7,   8,  29
 14,  29,  28,   7
 15,   8,   9,  30
 16,  30,  29,   8
 17,   9,  10,  31
 18,  31,  30,   9
 19,  10,  11,  32
 20,  32,  31,  10
** ... 780 like lines cut
*FEM Nodes
All
*FEM Elements
All
*SOLVER, IMPLICIT STATIC
*Scale Factor
1000
*Outputs
200
All, max
*Time
0, 1
*BOUNDARY, TYPE=DISPLACEMENT RAMP
1, 0, 0
1, 2, 100
2, 2, 100
3, 2, 100
4, 2, 100
5, 2, 100
6, 2, 100
7, 2, 100
8, 2, 100
9, 2, 100
10, 2, 100
11, 2, 100
12, 2, 100
13, 2, 100
14, 2, 100
15, 2, 100
16, 2, 100
17, 2, 100
18, 2, 100
19, 2, 100
** ... 23 like lines cut
*END SOLVER
*SOLVER, IMPLICIT STATIC
*Scale Factor
1000
*Outputs
250
All, max
*Time
1, 1000
*BOUNDARY, TYPE=DISPLACEMENT RAMP
1, 0, 0
1, 2, 0
2, 2, 0
3, 2, 0
4, 2, 0
5, 2, 0
6, 2, 0
7, 2, 0
8, 2, 0
9, 2, 0
10, 2, 0
11, 2, 0
12, 2, 0
13, 2, 0
14, 2, 0
15, 2, 0
16, 2, 0
17, 2, 0
18, 2, 0
19, 2, 0
** ... 23 like lines cut
*END SOLVER
*MATERIAL, name=Region1
*Density
920
*HyperElastic, Neo-Hookean
1E7, 0.4
All
*ExtraDof
*Temperature
2.04, 0, 5, 0, 0, 0, 0
*List of Elements
All
*END

