*Node
      1,          10.0,          0.0,          3.0
      2,          9.5,          0.0,          3.0
      3,          9.0,          0.0,          3.0
      4,          8.5,          0.0,          3.0
      5,          8.0,          0.0,          3.0
      6,          7.5,          0.0,          3.0
      7,          7.0,          0.0,          3.0
      8,          6.5,          0.0,          3.0
      9,          6.0,          0.0,          3.0
      10,          5.5,          0.0,          3.0
      11,          5.0,          0.0,          3.0
      12,          4.5,          0.0,          3.0
      13,          4.0,          0.0,          3.0
      14,          3.5,          0.0,          3.0
      15,          3.0,          0.0,          3.0
      16,          2.5,          0.0,          3.0
      17,          2.0,          0.0,          3.0
      18,          1.5,          0.0,          3.0
      19,          1.0,          0.0,          3.0
      20,          0.5,          0.0,          3.0
** ... 1009 like lines cut
*Element, type=C3D4
1, 148, 170, 169, 23
2, 148, 149, 170, 23
3, 169, 148, 23, 22
4, 148, 1, 23, 22
5, 148, 1, 2, 23
6, 149, 148, 2, 23
7, 149, 171, 170, 24
8, 149, 150, 171, 24
9, 170, 149, 24, 23
10, 149, 2, 24, 23
11, 149, 2, 3, 24
12, 150, 149, 3, 24
13, 150, 172, 171, 25
14, 150, 151, 172, 25
15, 171, 150, 25, 24
16, 150, 3, 25, 24
17, 150, 3, 4, 25
18, 151, 150, 4, 25
19, 151, 173, 172, 26
20, 151, 152, 173, 26
** ... 4300 like lines cut
*FEM Nodes
All
*FEM Elements
All
*SOLVER, IMPLICIT STATIC
*ACTIVATION
*Scale Factor
500
*Outputs
200
All, max
*Time
0,15
*STIFFNESS MATRIX, TYPE=BEGINNING
*BOUNDARY, TYPE=DISPLACEMENT INST
1009	,0	,0
1010	,0	,0
1011	,0	,0
1012	,0	,0
1013	,0	,0
1014	,0	,0
1015	,0	,0
1016	,0	,0
1017	,0	,0
1018	,0	,0
1019	,0	,0
1020	,0	,0
1021	,0	,0
1022	,0	,0
1023	,0	,0
1024	,0	,0
1025	,0	,0
1026	,0	,0
1027	,0	,0
1028	,0	,0
** ... 568 like lines cut
*FLUX EXTRADOF, TYPE=VOLUMETRIC HEAT FLUX
12.38, 15, 10 
1
2
3
4
5
6
*FLUX EXTRADOF, TYPE=VOLUMETRIC HEAT FLUX
12.36, 15, 10 
7
8
9
10
11
12
*FLUX EXTRADOF, TYPE=VOLUMETRIC HEAT FLUX
12.34, 15, 10 
13
14
15
16
17
18
*FLUX EXTRADOF, TYPE=VOLUMETRIC HEAT FLUX
12.32, 15, 10 
19
20
21
22
23
24
*FLUX EXTRADOF, TYPE=VOLUMETRIC HEAT FLUX
12.3, 15, 10 
25
26
27
28
29
30
*FLUX EXTRADOF, TYPE=VOLUMETRIC HEAT FLUX
12.28, 15, 10 
31
32
33
34
35
36
*FLUX EXTRADOF, TYPE=VOLUMETRIC HEAT FLUX
12.26, 15, 10 
37
38
39
40
41
42
*FLUX EXTRADOF, TYPE=VOLUMETRIC HEAT FLUX
12.24, 15, 10 
43
44
45
46
47
48
*FLUX EXTRADOF, TYPE=VOLUMETRIC HEAT FLUX
12.22, 15, 10 
49
50
51
52
53
54
*FLUX EXTRADOF, TYPE=VOLUMETRIC HEAT FLUX
12.2, 15, 10 
55
56
57
58
59
60
*FLUX EXTRADOF, TYPE=VOLUMETRIC HEAT FLUX
12.18, 15, 10 
61
62
63
64
65
66
*FLUX EXTRADOF, TYPE=VOLUMETRIC HEAT FLUX
12.16, 15, 10 
67
68
69
70
71
72
*FLUX EXTRADOF, TYPE=VOLUMETRIC HEAT FLUX
12.14, 15, 10 
73
74
75
76
77
78
*FLUX EXTRADOF, TYPE=VOLUMETRIC HEAT FLUX
12.12, 15, 10 
79
80
81
82
83
84
*FLUX EXTRADOF, TYPE=VOLUMETRIC HEAT FLUX
12.1, 15, 10 
85
86
87
88
89
90
*FLUX EXTRADOF, TYPE=VOLUMETRIC HEAT FLUX
12.08, 15, 10 
91
92
93
94
95
96
*FLUX EXTRADOF, TYPE=VOLUMETRIC HEAT FLUX
12.06, 15, 10 
97
98
99
100
101
102
*FLUX EXTRADOF, TYPE=VOLUMETRIC HEAT FLUX
12.04, 15, 10 
103
104
105
106
107
108
*FLUX EXTRADOF, TYPE=VOLUMETRIC HEAT FLUX
12.02, 15, 10 
109
110
111
112
113
114
*FLUX EXTRADOF, TYPE=VOLUMETRIC HEAT FLUX
12.0, 15, 10 
115
116
117
118
119
120
*FLUX EXTRADOF, TYPE=VOLUMETRIC HEAT FLUX
9.98, 15, 10 
121
122
123
124
125
126
*FLUX EXTRADOF, TYPE=VOLUMETRIC HEAT FLUX
9.96, 15, 10 
127
128
129
130
131
132
*FLUX EXTRADOF, TYPE=VOLUMETRIC HEAT FLUX
9.94, 15, 10 
133
134
135
136
137
138
*FLUX EXTRADOF, TYPE=VOLUMETRIC HEAT FLUX
9.92, 15, 10 
139
140
141
142
143
144
*FLUX EXTRADOF, TYPE=VOLUMETRIC HEAT FLUX
9.9, 15, 10 
145
146
147
148
149
150
*FLUX EXTRADOF, TYPE=VOLUMETRIC HEAT FLUX
9.88, 15, 10 
151
152
153
154
155
156
*FLUX EXTRADOF, TYPE=VOLUMETRIC HEAT FLUX
9.86, 15, 10 
157
158
159
160
161
162
*FLUX EXTRADOF, TYPE=VOLUMETRIC HEAT FLUX
9.84, 15, 10 
163
164
165
166
167
168
*FLUX EXTRADOF, TYPE=VOLUMETRIC HEAT FLUX
9.82, 15, 10 
169
170
171
172
173
174
*FLUX EXTRADOF, TYPE=VOLUMETRIC HEAT FLUX
9.8, 15, 10 
175
176
177
178
179
180
*FLUX EXTRADOF, TYPE=VOLUMETRIC HEAT FLUX
9.78, 15, 10 
181
182
183
184
185
186
*FLUX EXTRADOF, TYPE=VOLUMETRIC HEAT FLUX
9.76, 15, 10 
187
188
189
190
191
192
*FLUX EXTRADOF, TYPE=VOLUMETRIC HEAT FLUX
9.74, 15, 10 
193
194
195
196
197
198
*FLUX EXTRADOF, TYPE=VOLUMETRIC HEAT FLUX
9.72, 15, 10 
199
200
201
202
203
204
*FLUX EXTRADOF, TYPE=VOLUMETRIC HEAT FLUX
9.7, 15, 10 
205
206
207
208
209
210
*FLUX EXTRADOF, TYPE=VOLUMETRIC HEAT FLUX
9.68, 15, 10 
211
212
213
214
215
216
*FLUX EXTRADOF, TYPE=VOLUMETRIC HEAT FLUX
9.66, 15, 10 
217
218
219
220
221
222
*FLUX EXTRADOF, TYPE=VOLUMETRIC HEAT FLUX
9.64, 15, 10 
223
224
225
226
227
228
*FLUX EXTRADOF, TYPE=VOLUMETRIC HEAT FLUX
9.62, 15, 10 
229
230
231
232
233
234
*FLUX EXTRADOF, TYPE=VOLUMETRIC HEAT FLUX
9.6, 15, 10 
235
236
237
238
239
240
*FLUX EXTRADOF, TYPE=VOLUMETRIC HEAT FLUX
7.58, 15, 10 
241
242
243
244
245
246
*FLUX EXTRADOF, TYPE=VOLUMETRIC HEAT FLUX
7.56, 15, 10 
247
248
249
250
251
252
*FLUX EXTRADOF, TYPE=VOLUMETRIC HEAT FLUX
7.54, 15, 10 
253
254
255
256
257
258
*FLUX EXTRADOF, TYPE=VOLUMETRIC HEAT FLUX
7.52, 15, 10 
259
260
261
262
263
264
*FLUX EXTRADOF, TYPE=VOLUMETRIC HEAT FLUX
7.5, 15, 10 
265
266
267
268
269
270
*FLUX EXTRADOF, TYPE=VOLUMETRIC HEAT FLUX
7.48, 15, 10 
271
272
273
274
275
276
*FLUX EXTRADOF, TYPE=VOLUMETRIC HEAT FLUX
7.46, 15, 10 
277
278
279
280
281
282
*FLUX EXTRADOF, TYPE=VOLUMETRIC HEAT FLUX
7.44, 15, 10 
283
284
285
286
287
288
*FLUX EXTRADOF, TYPE=VOLUMETRIC HEAT FLUX
7.42, 15, 10 
289
290
291
292
293
294
*FLUX EXTRADOF, TYPE=VOLUMETRIC HEAT FLUX
7.4, 15, 10 
295
296
297
298
299
300
*FLUX EXTRADOF, TYPE=VOLUMETRIC HEAT FLUX
7.38, 15, 10 
301
302
303
304
305
306
*FLUX EXTRADOF, TYPE=VOLUMETRIC HEAT FLUX
7.36, 15, 10 
307
308
309
310
311
312
*FLUX EXTRADOF, TYPE=VOLUMETRIC HEAT FLUX
7.34, 15, 10 
313
314
315
316
317
318
*FLUX EXTRADOF, TYPE=VOLUMETRIC HEAT FLUX
7.32, 15, 10 
319
320
321
322
323
324
*FLUX EXTRADOF, TYPE=VOLUMETRIC HEAT FLUX
7.3, 15, 10 
325
326
327
328
329
330
*FLUX EXTRADOF, TYPE=VOLUMETRIC HEAT FLUX
7.28, 15, 10 
331
332
333
334
335
336
*FLUX EXTRADOF, TYPE=VOLUMETRIC HEAT FLUX
7.26, 15, 10 
337
338
339
340
341
342
*FLUX EXTRADOF, TYPE=VOLUMETRIC HEAT FLUX
7.24, 15, 10 
343
344
345
346
347
348
*FLUX EXTRADOF, TYPE=VOLUMETRIC HEAT FLUX
7.22, 15, 10 
349
350
351
352
353
354
*FLUX EXTRADOF, TYPE=VOLUMETRIC HEAT FLUX
7.2, 15, 10 
355
356
357
358
359
360
*FLUX EXTRADOF, TYPE=VOLUMETRIC HEAT FLUX
5.18, 15, 10 
361
362
363
364
365
366
*FLUX EXTRADOF, TYPE=VOLUMETRIC HEAT FLUX
5.16, 15, 10 
367
368
369
370
371
372
*FLUX EXTRADOF, TYPE=VOLUMETRIC HEAT FLUX
5.14, 15, 10 
373
374
375
376
377
378
*FLUX EXTRADOF, TYPE=VOLUMETRIC HEAT FLUX
5.12, 15, 10 
379
380
381
382
383
384
*FLUX EXTRADOF, TYPE=VOLUMETRIC HEAT FLUX
5.1, 15, 10 
385
386
387
388
389
390
*FLUX EXTRADOF, TYPE=VOLUMETRIC HEAT FLUX
5.08, 15, 10 
391
392
393
394
395
396
*FLUX EXTRADOF, TYPE=VOLUMETRIC HEAT FLUX
5.06, 15, 10 
397
398
399
400
401
402
*FLUX EXTRADOF, TYPE=VOLUMETRIC HEAT FLUX
5.04, 15, 10 
403
404
405
406
407
408
*FLUX EXTRADOF, TYPE=VOLUMETRIC HEAT FLUX
5.02, 15, 10 
409
410
411
412
413
414
*FLUX EXTRADOF, TYPE=VOLUMETRIC HEAT FLUX
5.0, 15, 10 
415
416
417
418
419
420
*FLUX EXTRADOF, TYPE=VOLUMETRIC HEAT FLUX
4.98, 15, 10 
421
422
423
424
425
426
*FLUX EXTRADOF, TYPE=VOLUMETRIC HEAT FLUX
4.96, 15, 10 
427
428
429
430
431
432
*FLUX EXTRADOF, TYPE=VOLUMETRIC HEAT FLUX
4.94, 15, 10 
433
434
435
436
437
438
*FLUX EXTRADOF, TYPE=VOLUMETRIC HEAT FLUX
4.92, 15, 10 
439
440
441
442
443
444
*FLUX EXTRADOF, TYPE=VOLUMETRIC HEAT FLUX
4.9, 15, 10 
445
446
447
448
449
450
*FLUX EXTRADOF, TYPE=VOLUMETRIC HEAT FLUX
4.88, 15, 10 
451
452
453
454
455
456
*FLUX EXTRADOF, TYPE=VOLUMETRIC HEAT FLUX
4.86, 15, 10 
457
458
459
460
461
462
*FLUX EXTRADOF, TYPE=VOLUMETRIC HEAT FLUX
4.84, 15, 10 
463
464
465
466
467
468
*FLUX EXTRADOF, TYPE=VOLUMETRIC HEAT FLUX
4.82, 15, 10 
469
470
471
472
473
474
*FLUX EXTRADOF, TYPE=VOLUMETRIC HEAT FLUX
4.8, 15, 10 
475
476
477
478
479
480
*FLUX EXTRADOF, TYPE=VOLUMETRIC HEAT FLUX
2.78, 15, 10 
481
482
483
484
485
486
*FLUX EXTRADOF, TYPE=VOLUMETRIC HEAT FLUX
2.76, 15, 10 
487
488
489
490
491
492
*FLUX EXTRADOF, TYPE=VOLUMETRIC HEAT FLUX
2.74, 15, 10 
493
494
495
496
497
498
*FLUX EXTRADOF, TYPE=VOLUMETRIC HEAT FLUX
2.72, 15, 10 
499
500
501
502
503
504
*FLUX EXTRADOF, TYPE=VOLUMETRIC HEAT FLUX
2.7, 15, 10 
505
506
507
508
509
510
*FLUX EXTRADOF, TYPE=VOLUMETRIC HEAT FLUX
2.68, 15, 10 
511
512
513
514
515
516
*FLUX EXTRADOF, TYPE=VOLUMETRIC HEAT FLUX
2.66, 15, 10 
517
518
519
520
521
522
*FLUX EXTRADOF, TYPE=VOLUMETRIC HEAT FLUX
2.64, 15, 10 
523
524
525
526
527
528
*FLUX EXTRADOF, TYPE=VOLUMETRIC HEAT FLUX
2.62, 15, 10 
529
530
531
532
533
534
*FLUX EXTRADOF, TYPE=VOLUMETRIC HEAT FLUX
2.6, 15, 10 
535
536
537
538
539
540
*FLUX EXTRADOF, TYPE=VOLUMETRIC HEAT FLUX
2.58, 15, 10 
541
542
543
544
545
546
*FLUX EXTRADOF, TYPE=VOLUMETRIC HEAT FLUX
2.56, 15, 10 
547
548
549
550
551
552
*FLUX EXTRADOF, TYPE=VOLUMETRIC HEAT FLUX
2.54, 15, 10 
553
554
555
556
557
558
*FLUX EXTRADOF, TYPE=VOLUMETRIC HEAT FLUX
2.52, 15, 10 
559
560
561
562
563
564
*FLUX EXTRADOF, TYPE=VOLUMETRIC HEAT FLUX
2.5, 15, 10 
565
566
567
568
569
570
*FLUX EXTRADOF, TYPE=VOLUMETRIC HEAT FLUX
2.48, 15, 10 
571
572
573
574
575
576
*FLUX EXTRADOF, TYPE=VOLUMETRIC HEAT FLUX
2.46, 15, 10 
577
578
579
580
581
582
*FLUX EXTRADOF, TYPE=VOLUMETRIC HEAT FLUX
2.44, 15, 10 
583
584
585
586
587
588
*FLUX EXTRADOF, TYPE=VOLUMETRIC HEAT FLUX
2.42, 15, 10 
589
590
591
592
593
594
*FLUX EXTRADOF, TYPE=VOLUMETRIC HEAT FLUX
2.4, 15, 10 
595
596
597
598
599
600
*FLUX EXTRADOF, TYPE=VOLUMETRIC HEAT FLUX
0.38, 15, 10 
601
602
603
604
605
606
*FLUX EXTRADOF, TYPE=VOLUMETRIC HEAT FLUX
0.36, 15, 10 
607
608
609
610
611
612
*FLUX EXTRADOF, TYPE=VOLUMETRIC HEAT FLUX
0.34, 15, 10 
613
614
615
616
617
618
*FLUX EXTRADOF, TYPE=VOLUMETRIC HEAT FLUX
0.32, 15, 10 
619
620
621
622
623
624
*FLUX EXTRADOF, TYPE=VOLUMETRIC HEAT FLUX
0.3, 15, 10 
625
626
627
628
629
630
*FLUX EXTRADOF, TYPE=VOLUMETRIC HEAT FLUX
0.28, 15, 10 
631
632
633
634
635
636
*FLUX EXTRADOF, TYPE=VOLUMETRIC HEAT FLUX
0.26, 15, 10 
637
638
639
640
641
642
*FLUX EXTRADOF, TYPE=VOLUMETRIC HEAT FLUX
0.24, 15, 10 
643
644
645
646
647
648
*FLUX EXTRADOF, TYPE=VOLUMETRIC HEAT FLUX
0.22, 15, 10 
649
650
651
652
653
654
*FLUX EXTRADOF, TYPE=VOLUMETRIC HEAT FLUX
0.2, 15, 10 
655
656
657
658
659
660
*FLUX EXTRADOF, TYPE=VOLUMETRIC HEAT FLUX
0.18, 15, 10 
661
662
663
664
665
666
*FLUX EXTRADOF, TYPE=VOLUMETRIC HEAT FLUX
0.16, 15, 10 
667
668
669
670
671
672
*FLUX EXTRADOF, TYPE=VOLUMETRIC HEAT FLUX
0.14, 15, 10 
673
674
675
676
677
678
*FLUX EXTRADOF, TYPE=VOLUMETRIC HEAT FLUX
0.12, 15, 10 
679
680
681
682
683
684
*FLUX EXTRADOF, TYPE=VOLUMETRIC HEAT FLUX
0.1, 15, 10 
685
686
687
688
689
690
*FLUX EXTRADOF, TYPE=VOLUMETRIC HEAT FLUX
0.08, 15, 10 
691
692
693
694
695
696
*FLUX EXTRADOF, TYPE=VOLUMETRIC HEAT FLUX
0.06, 15, 10 
697
698
699
700
701
702
*FLUX EXTRADOF, TYPE=VOLUMETRIC HEAT FLUX
0.04, 15, 10 
703
704
705
706
707
708
*FLUX EXTRADOF, TYPE=VOLUMETRIC HEAT FLUX
0.02, 15, 10 
709
710
711
712
713
714
*FLUX EXTRADOF, TYPE=VOLUMETRIC HEAT FLUX
0.0, 15, 10 
715
716
717
718
719
720
*FLUX EXTRADOF, TYPE=VOLUMETRIC HEAT FLUX
12.78, 15, 10 
721
722
723
724
725
726
*FLUX EXTRADOF, TYPE=VOLUMETRIC HEAT FLUX
12.76, 15, 10 
727
728
729
730
731
732
*FLUX EXTRADOF, TYPE=VOLUMETRIC HEAT FLUX
12.74, 15, 10 
733
734
735
736
737
738
*FLUX EXTRADOF, TYPE=VOLUMETRIC HEAT FLUX
12.72, 15, 10 
739
740
741
742
743
744
*FLUX EXTRADOF, TYPE=VOLUMETRIC HEAT FLUX
12.7, 15, 10 
745
746
747
748
749
750
*FLUX EXTRADOF, TYPE=VOLUMETRIC HEAT FLUX
12.68, 15, 10 
751
752
753
754
755
756
*FLUX EXTRADOF, TYPE=VOLUMETRIC HEAT FLUX
12.66, 15, 10 
757
758
759
760
761
762
*FLUX EXTRADOF, TYPE=VOLUMETRIC HEAT FLUX
12.64, 15, 10 
763
764
765
766
767
768
*FLUX EXTRADOF, TYPE=VOLUMETRIC HEAT FLUX
12.62, 15, 10 
769
770
771
772
773
774
*FLUX EXTRADOF, TYPE=VOLUMETRIC HEAT FLUX
12.6, 15, 10 
775
776
777
778
779
780
*FLUX EXTRADOF, TYPE=VOLUMETRIC HEAT FLUX
12.58, 15, 10 
781
782
783
784
785
786
*FLUX EXTRADOF, TYPE=VOLUMETRIC HEAT FLUX
12.56, 15, 10 
787
788
789
790
791
792
*FLUX EXTRADOF, TYPE=VOLUMETRIC HEAT FLUX
12.54, 15, 10 
793
794
795
796
797
798
*FLUX EXTRADOF, TYPE=VOLUMETRIC HEAT FLUX
12.52, 15, 10 
799
800
801
802
803
804
*FLUX EXTRADOF, TYPE=VOLUMETRIC HEAT FLUX
12.5, 15, 10 
805
806
807
808
809
810
*FLUX EXTRADOF, TYPE=VOLUMETRIC HEAT FLUX
12.48, 15, 10 
811
812
813
814
815
816
*FLUX EXTRADOF, TYPE=VOLUMETRIC HEAT FLUX
12.46, 15, 10 
817
818
819
820
821
822
*FLUX EXTRADOF, TYPE=VOLUMETRIC HEAT FLUX
12.44, 15, 10 
823
824
825
826
827
828
*FLUX EXTRADOF, TYPE=VOLUMETRIC HEAT FLUX
12.42, 15, 10 
829
830
831
832
833
834
*FLUX EXTRADOF, TYPE=VOLUMETRIC HEAT FLUX
12.4, 15, 10 
835
836
837
838
839
840
*FLUX EXTRADOF, TYPE=VOLUMETRIC HEAT FLUX
10.38, 15, 10 
841
842
843
844
845
846
*FLUX EXTRADOF, TYPE=VOLUMETRIC HEAT FLUX
10.36, 15, 10 
847
848
849
850
851
852
*FLUX EXTRADOF, TYPE=VOLUMETRIC HEAT FLUX
10.34, 15, 10 
853
854
855
856
857
858
*FLUX EXTRADOF, TYPE=VOLUMETRIC HEAT FLUX
10.32, 15, 10 
859
860
861
862
863
864
*FLUX EXTRADOF, TYPE=VOLUMETRIC HEAT FLUX
10.3, 15, 10 
865
866
867
868
869
870
*FLUX EXTRADOF, TYPE=VOLUMETRIC HEAT FLUX
10.28, 15, 10 
871
872
873
874
875
876
*FLUX EXTRADOF, TYPE=VOLUMETRIC HEAT FLUX
10.26, 15, 10 
877
878
879
880
881
882
*FLUX EXTRADOF, TYPE=VOLUMETRIC HEAT FLUX
10.24, 15, 10 
883
884
885
886
887
888
*FLUX EXTRADOF, TYPE=VOLUMETRIC HEAT FLUX
10.22, 15, 10 
889
890
891
892
893
894
*FLUX EXTRADOF, TYPE=VOLUMETRIC HEAT FLUX
10.2, 15, 10 
895
896
897
898
899
900
*FLUX EXTRADOF, TYPE=VOLUMETRIC HEAT FLUX
10.18, 15, 10 
901
902
903
904
905
906
*FLUX EXTRADOF, TYPE=VOLUMETRIC HEAT FLUX
10.16, 15, 10 
907
908
909
910
911
912
*FLUX EXTRADOF, TYPE=VOLUMETRIC HEAT FLUX
10.14, 15, 10 
913
914
915
916
917
918
*FLUX EXTRADOF, TYPE=VOLUMETRIC HEAT FLUX
10.12, 15, 10 
919
920
921
922
923
924
*FLUX EXTRADOF, TYPE=VOLUMETRIC HEAT FLUX
10.1, 15, 10 
925
926
927
928
929
930
*FLUX EXTRADOF, TYPE=VOLUMETRIC HEAT FLUX
10.08, 15, 10 
931
932
933
934
935
936
*FLUX EXTRADOF, TYPE=VOLUMETRIC HEAT FLUX
10.06, 15, 10 
937
938
939
940
941
942
*FLUX EXTRADOF, TYPE=VOLUMETRIC HEAT FLUX
10.04, 15, 10 
943
944
945
946
947
948
*FLUX EXTRADOF, TYPE=VOLUMETRIC HEAT FLUX
10.02, 15, 10 
949
950
951
952
953
954
*FLUX EXTRADOF, TYPE=VOLUMETRIC HEAT FLUX
10.0, 15, 10 
955
956
957
958
959
960
*FLUX EXTRADOF, TYPE=VOLUMETRIC HEAT FLUX
7.98, 15, 10 
961
962
963
964
965
966
*FLUX EXTRADOF, TYPE=VOLUMETRIC HEAT FLUX
7.96, 15, 10 
967
968
969
970
971
972
*FLUX EXTRADOF, TYPE=VOLUMETRIC HEAT FLUX
7.94, 15, 10 
973
974
975
976
977
978
*FLUX EXTRADOF, TYPE=VOLUMETRIC HEAT FLUX
7.92, 15, 10 
979
980
981
982
983
984
*FLUX EXTRADOF, TYPE=VOLUMETRIC HEAT FLUX
7.9, 15, 10 
985
986
987
988
989
990
*FLUX EXTRADOF, TYPE=VOLUMETRIC HEAT FLUX
7.88, 15, 10 
991
992
993
994
995
996
*FLUX EXTRADOF, TYPE=VOLUMETRIC HEAT FLUX
7.86, 15, 10 
997
998
999
1000
1001
1002
*FLUX EXTRADOF, TYPE=VOLUMETRIC HEAT FLUX
7.84, 15, 10 
1003
1004
1005
1006
1007
1008
*FLUX EXTRADOF, TYPE=VOLUMETRIC HEAT FLUX
7.82, 15, 10 
1009
1010
1011
1012
1013
1014
*FLUX EXTRADOF, TYPE=VOLUMETRIC HEAT FLUX
7.8, 15, 10 
1015
1016
1017
1018
1019
1020
*FLUX EXTRADOF, TYPE=VOLUMETRIC HEAT FLUX
7.78, 15, 10 
1021
1022
1023
1024
1025
1026
*FLUX EXTRADOF, TYPE=VOLUMETRIC HEAT FLUX
7.76, 15, 10 
1027
1028
1029
1030
1031
1032
*FLUX EXTRADOF, TYPE=VOLUMETRIC HEAT FLUX
7.74, 15, 10 
1033
1034
1035
1036
1037
1038
*FLUX EXTRADOF, TYPE=VOLUMETRIC HEAT FLUX
7.72, 15, 10 
1039
1040
1041
1042
1043
1044
*FLUX EXTRADOF, TYPE=VOLUMETRIC HEAT FLUX
7.7, 15, 10 
1045
1046
1047
1048
1049
1050
*FLUX EXTRADOF, TYPE=VOLUMETRIC HEAT FLUX
7.68, 15, 10 
1051
1052
1053
1054
1055
1056
*FLUX EXTRADOF, TYPE=VOLUMETRIC HEAT FLUX
7.66, 15, 10 
1057
1058
1059
1060
1061
1062
*FLUX EXTRADOF, TYPE=VOLUMETRIC HEAT FLUX
7.64, 15, 10 
1063
1064
1065
1066
1067
1068
*FLUX EXTRADOF, TYPE=VOLUMETRIC HEAT FLUX
7.62, 15, 10 
1069
1070
1071
1072
1073
1074
*FLUX EXTRADOF, TYPE=VOLUMETRIC HEAT FLUX
7.6, 15, 10 
1075
1076
1077
1078
1079
1080
*FLUX EXTRADOF, TYPE=VOLUMETRIC HEAT FLUX
5.58, 15, 10 
1081
1082
1083
1084
1085
1086
*FLUX EXTRADOF, TYPE=VOLUMETRIC HEAT FLUX
5.56, 15, 10 
1087
1088
1089
1090
1091
1092
*FLUX EXTRADOF, TYPE=VOLUMETRIC HEAT FLUX
5.54, 15, 10 
1093
1094
1095
1096
1097
1098
*FLUX EXTRADOF, TYPE=VOLUMETRIC HEAT FLUX
5.52, 15, 10 
1099
1100
1101
1102
1103
1104
*FLUX EXTRADOF, TYPE=VOLUMETRIC HEAT FLUX
5.5, 15, 10 
1105
1106
1107
1108
1109
1110
*FLUX EXTRADOF, TYPE=VOLUMETRIC HEAT FLUX
5.48, 15, 10 
1111
1112
1113
1114
1115
1116
*FLUX EXTRADOF, TYPE=VOLUMETRIC HEAT FLUX
5.46, 15, 10 
1117
1118
1119
1120
1121
1122
*FLUX EXTRADOF, TYPE=VOLUMETRIC HEAT FLUX
5.44, 15, 10 
1123
1124
1125
1126
1127
1128
*FLUX EXTRADOF, TYPE=VOLUMETRIC HEAT FLUX
5.42, 15, 10 
1129
1130
1131
1132
1133
1134
*FLUX EXTRADOF, TYPE=VOLUMETRIC HEAT FLUX
5.4, 15, 10 
1135
1136
1137
1138
1139
1140
*FLUX EXTRADOF, TYPE=VOLUMETRIC HEAT FLUX
5.38, 15, 10 
1141
1142
1143
1144
1145
1146
*FLUX EXTRADOF, TYPE=VOLUMETRIC HEAT FLUX
5.36, 15, 10 
1147
1148
1149
1150
1151
1152
*FLUX EXTRADOF, TYPE=VOLUMETRIC HEAT FLUX
5.34, 15, 10 
1153
1154
1155
1156
1157
1158
*FLUX EXTRADOF, TYPE=VOLUMETRIC HEAT FLUX
5.32, 15, 10 
1159
1160
1161
1162
1163
1164
*FLUX EXTRADOF, TYPE=VOLUMETRIC HEAT FLUX
5.3, 15, 10 
1165
1166
1167
1168
1169
1170
*FLUX EXTRADOF, TYPE=VOLUMETRIC HEAT FLUX
5.28, 15, 10 
1171
1172
1173
1174
1175
1176
*FLUX EXTRADOF, TYPE=VOLUMETRIC HEAT FLUX
5.26, 15, 10 
1177
1178
1179
1180
1181
1182
*FLUX EXTRADOF, TYPE=VOLUMETRIC HEAT FLUX
5.24, 15, 10 
1183
1184
1185
1186
1187
1188
*FLUX EXTRADOF, TYPE=VOLUMETRIC HEAT FLUX
5.22, 15, 10 
1189
1190
1191
1192
1193
1194
*FLUX EXTRADOF, TYPE=VOLUMETRIC HEAT FLUX
5.2, 15, 10 
1195
1196
1197
1198
1199
1200
*FLUX EXTRADOF, TYPE=VOLUMETRIC HEAT FLUX
3.18, 15, 10 
1201
1202
1203
1204
1205
1206
*FLUX EXTRADOF, TYPE=VOLUMETRIC HEAT FLUX
3.16, 15, 10 
1207
1208
1209
1210
1211
1212
*FLUX EXTRADOF, TYPE=VOLUMETRIC HEAT FLUX
3.14, 15, 10 
1213
1214
1215
1216
1217
1218
*FLUX EXTRADOF, TYPE=VOLUMETRIC HEAT FLUX
3.12, 15, 10 
1219
1220
1221
1222
1223
1224
*FLUX EXTRADOF, TYPE=VOLUMETRIC HEAT FLUX
3.1, 15, 10 
1225
1226
1227
1228
1229
1230
*FLUX EXTRADOF, TYPE=VOLUMETRIC HEAT FLUX
3.08, 15, 10 
1231
1232
1233
1234
1235
1236
*FLUX EXTRADOF, TYPE=VOLUMETRIC HEAT FLUX
3.06, 15, 10 
1237
1238
1239
1240
1241
1242
*FLUX EXTRADOF, TYPE=VOLUMETRIC HEAT FLUX
3.04, 15, 10 
1243
1244
1245
1246
1247
1248
*FLUX EXTRADOF, TYPE=VOLUMETRIC HEAT FLUX
3.02, 15, 10 
1249
1250
1251
1252
1253
1254
*FLUX EXTRADOF, TYPE=VOLUMETRIC HEAT FLUX
3.0, 15, 10 
1255
1256
1257
1258
1259
1260
*FLUX EXTRADOF, TYPE=VOLUMETRIC HEAT FLUX
2.98, 15, 10 
1261
1262
1263
1264
1265
1266
*FLUX EXTRADOF, TYPE=VOLUMETRIC HEAT FLUX
2.96, 15, 10 
1267
1268
1269
1270
1271
1272
*FLUX EXTRADOF, TYPE=VOLUMETRIC HEAT FLUX
2.94, 15, 10 
1273
1274
1275
1276
1277
1278
*FLUX EXTRADOF, TYPE=VOLUMETRIC HEAT FLUX
2.92, 15, 10 
1279
1280
1281
1282
1283
1284
*FLUX EXTRADOF, TYPE=VOLUMETRIC HEAT FLUX
2.9, 15, 10 
1285
1286
1287
1288
1289
1290
*FLUX EXTRADOF, TYPE=VOLUMETRIC HEAT FLUX
2.88, 15, 10 
1291
1292
1293
1294
1295
1296
*FLUX EXTRADOF, TYPE=VOLUMETRIC HEAT FLUX
2.86, 15, 10 
1297
1298
1299
1300
1301
1302
*FLUX EXTRADOF, TYPE=VOLUMETRIC HEAT FLUX
2.84, 15, 10 
1303
1304
1305
1306
1307
1308
*FLUX EXTRADOF, TYPE=VOLUMETRIC HEAT FLUX
2.82, 15, 10 
1309
1310
1311
1312
1313
1314
*FLUX EXTRADOF, TYPE=VOLUMETRIC HEAT FLUX
2.8, 15, 10 
1315
1316
1317
1318
1319
1320
*FLUX EXTRADOF, TYPE=VOLUMETRIC HEAT FLUX
0.78, 15, 10 
1321
1322
1323
1324
1325
1326
*FLUX EXTRADOF, TYPE=VOLUMETRIC HEAT FLUX
0.76, 15, 10 
1327
1328
1329
1330
1331
1332
*FLUX EXTRADOF, TYPE=VOLUMETRIC HEAT FLUX
0.74, 15, 10 
1333
1334
1335
1336
1337
1338
*FLUX EXTRADOF, TYPE=VOLUMETRIC HEAT FLUX
0.72, 15, 10 
1339
1340
1341
1342
1343
1344
*FLUX EXTRADOF, TYPE=VOLUMETRIC HEAT FLUX
0.7, 15, 10 
1345
1346
1347
1348
1349
1350
*FLUX EXTRADOF, TYPE=VOLUMETRIC HEAT FLUX
0.68, 15, 10 
1351
1352
1353
1354
1355
1356
*FLUX EXTRADOF, TYPE=VOLUMETRIC HEAT FLUX
0.66, 15, 10 
1357
1358
1359
1360
1361
1362
*FLUX EXTRADOF, TYPE=VOLUMETRIC HEAT FLUX
0.64, 15, 10 
1363
1364
1365
1366
1367
1368
*FLUX EXTRADOF, TYPE=VOLUMETRIC HEAT FLUX
0.62, 15, 10 
1369
1370
1371
1372
1373
1374
*FLUX EXTRADOF, TYPE=VOLUMETRIC HEAT FLUX
0.6, 15, 10 
1375
1376
1377
1378
1379
1380
*FLUX EXTRADOF, TYPE=VOLUMETRIC HEAT FLUX
0.58, 15, 10 
1381
1382
1383
1384
1385
1386
*FLUX EXTRADOF, TYPE=VOLUMETRIC HEAT FLUX
0.56, 15, 10 
1387
1388
1389
1390
1391
1392
*FLUX EXTRADOF, TYPE=VOLUMETRIC HEAT FLUX
0.54, 15, 10 
1393
1394
1395
1396
1397
1398
*FLUX EXTRADOF, TYPE=VOLUMETRIC HEAT FLUX
0.52, 15, 10 
1399
1400
1401
1402
1403
1404
*FLUX EXTRADOF, TYPE=VOLUMETRIC HEAT FLUX
0.5, 15, 10 
1405
1406
1407
1408
1409
1410
*FLUX EXTRADOF, TYPE=VOLUMETRIC HEAT FLUX
0.48, 15, 10 
1411
1412
1413
1414
1415
1416
*FLUX EXTRADOF, TYPE=VOLUMETRIC HEAT FLUX
0.46, 15, 10 
1417
1418
1419
1420
1421
1422
*FLUX EXTRADOF, TYPE=VOLUMETRIC HEAT FLUX
0.44, 15, 10 
1423
1424
1425
1426
1427
1428
*FLUX EXTRADOF, TYPE=VOLUMETRIC HEAT FLUX
0.42, 15, 10 
1429
1430
1431
1432
1433
1434
*FLUX EXTRADOF, TYPE=VOLUMETRIC HEAT FLUX
0.4, 15, 10 
1435
1436
1437
1438
1439
1440
*FLUX EXTRADOF, TYPE=VOLUMETRIC HEAT FLUX
13.18, 15, 10 
1441
1442
1443
1444
1445
1446
*FLUX EXTRADOF, TYPE=VOLUMETRIC HEAT FLUX
13.16, 15, 10 
1447
1448
1449
1450
1451
1452
*FLUX EXTRADOF, TYPE=VOLUMETRIC HEAT FLUX
13.14, 15, 10 
1453
1454
1455
1456
1457
1458
*FLUX EXTRADOF, TYPE=VOLUMETRIC HEAT FLUX
13.12, 15, 10 
1459
1460
1461
1462
1463
1464
*FLUX EXTRADOF, TYPE=VOLUMETRIC HEAT FLUX
13.1, 15, 10 
1465
1466
1467
1468
1469
1470
*FLUX EXTRADOF, TYPE=VOLUMETRIC HEAT FLUX
13.08, 15, 10 
1471
1472
1473
1474
1475
1476
*FLUX EXTRADOF, TYPE=VOLUMETRIC HEAT FLUX
13.06, 15, 10 
1477
1478
1479
1480
1481
1482
*FLUX EXTRADOF, TYPE=VOLUMETRIC HEAT FLUX
13.04, 15, 10 
1483
1484
1485
1486
1487
1488
*FLUX EXTRADOF, TYPE=VOLUMETRIC HEAT FLUX
13.02, 15, 10 
1489
1490
1491
1492
1493
1494
*FLUX EXTRADOF, TYPE=VOLUMETRIC HEAT FLUX
13.0, 15, 10 
1495
1496
1497
1498
1499
1500
*FLUX EXTRADOF, TYPE=VOLUMETRIC HEAT FLUX
12.98, 15, 10 
1501
1502
1503
1504
1505
1506
*FLUX EXTRADOF, TYPE=VOLUMETRIC HEAT FLUX
12.96, 15, 10 
1507
1508
1509
1510
1511
1512
*FLUX EXTRADOF, TYPE=VOLUMETRIC HEAT FLUX
12.94, 15, 10 
1513
1514
1515
1516
1517
1518
*FLUX EXTRADOF, TYPE=VOLUMETRIC HEAT FLUX
12.92, 15, 10 
1519
1520
1521
1522
1523
1524
*FLUX EXTRADOF, TYPE=VOLUMETRIC HEAT FLUX
12.9, 15, 10 
1525
1526
1527
1528
1529
1530
*FLUX EXTRADOF, TYPE=VOLUMETRIC HEAT FLUX
12.88, 15, 10 
1531
1532
1533
1534
1535
1536
*FLUX EXTRADOF, TYPE=VOLUMETRIC HEAT FLUX
12.86, 15, 10 
1537
1538
1539
1540
1541
1542
*FLUX EXTRADOF, TYPE=VOLUMETRIC HEAT FLUX
12.84, 15, 10 
1543
1544
1545
1546
1547
1548
*FLUX EXTRADOF, TYPE=VOLUMETRIC HEAT FLUX
12.82, 15, 10 
1549
1550
1551
1552
1553
1554
*FLUX EXTRADOF, TYPE=VOLUMETRIC HEAT FLUX
12.8, 15, 10 
1555
1556
1557
1558
1559
1560
*FLUX EXTRADOF, TYPE=VOLUMETRIC HEAT FLUX
10.78, 15, 10 
1561
1562
1563
1564
1565
1566
*FLUX EXTRADOF, TYPE=VOLUMETRIC HEAT FLUX
10.76, 15, 10 
1567
1568
1569
1570
1571
1572
*FLUX EXTRADOF, TYPE=VOLUMETRIC HEAT FLUX
10.74, 15, 10 
1573
1574
1575
1576
1577
1578
*FLUX EXTRADOF, TYPE=VOLUMETRIC HEAT FLUX
10.72, 15, 10 
1579
1580
1581
1582
1583
1584
*FLUX EXTRADOF, TYPE=VOLUMETRIC HEAT FLUX
10.7, 15, 10 
1585
1586
1587
1588
1589
1590
*FLUX EXTRADOF, TYPE=VOLUMETRIC HEAT FLUX
10.68, 15, 10 
1591
1592
1593
1594
1595
1596
*FLUX EXTRADOF, TYPE=VOLUMETRIC HEAT FLUX
10.66, 15, 10 
1597
1598
1599
1600
1601
1602
*FLUX EXTRADOF, TYPE=VOLUMETRIC HEAT FLUX
10.64, 15, 10 
1603
1604
1605
1606
1607
1608
*FLUX EXTRADOF, TYPE=VOLUMETRIC HEAT FLUX
10.62, 15, 10 
1609
1610
1611
1612
1613
1614
*FLUX EXTRADOF, TYPE=VOLUMETRIC HEAT FLUX
10.6, 15, 10 
1615
1616
1617
1618
1619
1620
*FLUX EXTRADOF, TYPE=VOLUMETRIC HEAT FLUX
10.58, 15, 10 
1621
1622
1623
1624
1625
1626
*FLUX EXTRADOF, TYPE=VOLUMETRIC HEAT FLUX
10.56, 15, 10 
1627
1628
1629
1630
1631
1632
*FLUX EXTRADOF, TYPE=VOLUMETRIC HEAT FLUX
10.54, 15, 10 
1633
1634
1635
1636
1637
1638
*FLUX EXTRADOF, TYPE=VOLUMETRIC HEAT FLUX
10.52, 15, 10 
1639
1640
1641
1642
1643
1644
*FLUX EXTRADOF, TYPE=VOLUMETRIC HEAT FLUX
10.5, 15, 10 
1645
1646
1647
1648
1649
1650
*FLUX EXTRADOF, TYPE=VOLUMETRIC HEAT FLUX
10.48, 15, 10 
1651
1652
1653
1654
1655
1656
*FLUX EXTRADOF, TYPE=VOLUMETRIC HEAT FLUX
10.46, 15, 10 
1657
1658
1659
1660
1661
1662
*FLUX EXTRADOF, TYPE=VOLUMETRIC HEAT FLUX
10.44, 15, 10 
1663
1664
1665
1666
1667
1668
*FLUX EXTRADOF, TYPE=VOLUMETRIC HEAT FLUX
10.42, 15, 10 
1669
1670
1671
1672
1673
1674
*FLUX EXTRADOF, TYPE=VOLUMETRIC HEAT FLUX
10.4, 15, 10 
1675
1676
1677
1678
1679
1680
*FLUX EXTRADOF, TYPE=VOLUMETRIC HEAT FLUX
8.38, 15, 10 
1681
1682
1683
1684
1685
1686
*FLUX EXTRADOF, TYPE=VOLUMETRIC HEAT FLUX
8.36, 15, 10 
1687
1688
1689
1690
1691
1692
*FLUX EXTRADOF, TYPE=VOLUMETRIC HEAT FLUX
8.34, 15, 10 
1693
1694
1695
1696
1697
1698
*FLUX EXTRADOF, TYPE=VOLUMETRIC HEAT FLUX
8.32, 15, 10 
1699
1700
1701
1702
1703
1704
*FLUX EXTRADOF, TYPE=VOLUMETRIC HEAT FLUX
8.3, 15, 10 
1705
1706
1707
1708
1709
1710
*FLUX EXTRADOF, TYPE=VOLUMETRIC HEAT FLUX
8.28, 15, 10 
1711
1712
1713
1714
1715
1716
*FLUX EXTRADOF, TYPE=VOLUMETRIC HEAT FLUX
8.26, 15, 10 
1717
1718
1719
1720
1721
1722
*FLUX EXTRADOF, TYPE=VOLUMETRIC HEAT FLUX
8.24, 15, 10 
1723
1724
1725
1726
1727
1728
*FLUX EXTRADOF, TYPE=VOLUMETRIC HEAT FLUX
8.22, 15, 10 
1729
1730
1731
1732
1733
1734
*FLUX EXTRADOF, TYPE=VOLUMETRIC HEAT FLUX
8.2, 15, 10 
1735
1736
1737
1738
1739
1740
*FLUX EXTRADOF, TYPE=VOLUMETRIC HEAT FLUX
8.18, 15, 10 
1741
1742
1743
1744
1745
1746
*FLUX EXTRADOF, TYPE=VOLUMETRIC HEAT FLUX
8.16, 15, 10 
1747
1748
1749
1750
1751
1752
*FLUX EXTRADOF, TYPE=VOLUMETRIC HEAT FLUX
8.14, 15, 10 
1753
1754
1755
1756
1757
1758
*FLUX EXTRADOF, TYPE=VOLUMETRIC HEAT FLUX
8.12, 15, 10 
1759
1760
1761
1762
1763
1764
*FLUX EXTRADOF, TYPE=VOLUMETRIC HEAT FLUX
8.1, 15, 10 
1765
1766
1767
1768
1769
1770
*FLUX EXTRADOF, TYPE=VOLUMETRIC HEAT FLUX
8.08, 15, 10 
1771
1772
1773
1774
1775
1776
*FLUX EXTRADOF, TYPE=VOLUMETRIC HEAT FLUX
8.06, 15, 10 
1777
1778
1779
1780
1781
1782
*FLUX EXTRADOF, TYPE=VOLUMETRIC HEAT FLUX
8.04, 15, 10 
1783
1784
1785
1786
1787
1788
*FLUX EXTRADOF, TYPE=VOLUMETRIC HEAT FLUX
8.02, 15, 10 
1789
1790
1791
1792
1793
1794
*FLUX EXTRADOF, TYPE=VOLUMETRIC HEAT FLUX
8.0, 15, 10 
1795
1796
1797
1798
1799
1800
*FLUX EXTRADOF, TYPE=VOLUMETRIC HEAT FLUX
5.98, 15, 10 
1801
1802
1803
1804
1805
1806
*FLUX EXTRADOF, TYPE=VOLUMETRIC HEAT FLUX
5.96, 15, 10 
1807
1808
1809
1810
1811
1812
*FLUX EXTRADOF, TYPE=VOLUMETRIC HEAT FLUX
5.94, 15, 10 
1813
1814
1815
1816
1817
1818
*FLUX EXTRADOF, TYPE=VOLUMETRIC HEAT FLUX
5.92, 15, 10 
1819
1820
1821
1822
1823
1824
*FLUX EXTRADOF, TYPE=VOLUMETRIC HEAT FLUX
5.9, 15, 10 
1825
1826
1827
1828
1829
1830
*FLUX EXTRADOF, TYPE=VOLUMETRIC HEAT FLUX
5.88, 15, 10 
1831
1832
1833
1834
1835
1836
*FLUX EXTRADOF, TYPE=VOLUMETRIC HEAT FLUX
5.86, 15, 10 
1837
1838
1839
1840
1841
1842
*FLUX EXTRADOF, TYPE=VOLUMETRIC HEAT FLUX
5.84, 15, 10 
1843
1844
1845
1846
1847
1848
*FLUX EXTRADOF, TYPE=VOLUMETRIC HEAT FLUX
5.82, 15, 10 
1849
1850
1851
1852
1853
1854
*FLUX EXTRADOF, TYPE=VOLUMETRIC HEAT FLUX
5.8, 15, 10 
1855
1856
1857
1858
1859
1860
*FLUX EXTRADOF, TYPE=VOLUMETRIC HEAT FLUX
5.78, 15, 10 
1861
1862
1863
1864
1865
1866
*FLUX EXTRADOF, TYPE=VOLUMETRIC HEAT FLUX
5.76, 15, 10 
1867
1868
1869
1870
1871
1872
*FLUX EXTRADOF, TYPE=VOLUMETRIC HEAT FLUX
5.74, 15, 10 
1873
1874
1875
1876
1877
1878
*FLUX EXTRADOF, TYPE=VOLUMETRIC HEAT FLUX
5.72, 15, 10 
1879
1880
1881
1882
1883
1884
*FLUX EXTRADOF, TYPE=VOLUMETRIC HEAT FLUX
5.7, 15, 10 
1885
1886
1887
1888
1889
1890
*FLUX EXTRADOF, TYPE=VOLUMETRIC HEAT FLUX
5.68, 15, 10 
1891
1892
1893
1894
1895
1896
*FLUX EXTRADOF, TYPE=VOLUMETRIC HEAT FLUX
5.66, 15, 10 
1897
1898
1899
1900
1901
1902
*FLUX EXTRADOF, TYPE=VOLUMETRIC HEAT FLUX
5.64, 15, 10 
1903
1904
1905
1906
1907
1908
*FLUX EXTRADOF, TYPE=VOLUMETRIC HEAT FLUX
5.62, 15, 10 
1909
1910
1911
1912
1913
1914
*FLUX EXTRADOF, TYPE=VOLUMETRIC HEAT FLUX
5.6, 15, 10 
1915
1916
1917
1918
1919
1920
*FLUX EXTRADOF, TYPE=VOLUMETRIC HEAT FLUX
3.58, 15, 10 
1921
1922
1923
1924
1925
1926
*FLUX EXTRADOF, TYPE=VOLUMETRIC HEAT FLUX
3.56, 15, 10 
1927
1928
1929
1930
1931
1932
*FLUX EXTRADOF, TYPE=VOLUMETRIC HEAT FLUX
3.54, 15, 10 
1933
1934
1935
1936
1937
1938
*FLUX EXTRADOF, TYPE=VOLUMETRIC HEAT FLUX
3.52, 15, 10 
1939
1940
1941
1942
1943
1944
*FLUX EXTRADOF, TYPE=VOLUMETRIC HEAT FLUX
3.5, 15, 10 
1945
1946
1947
1948
1949
1950
*FLUX EXTRADOF, TYPE=VOLUMETRIC HEAT FLUX
3.48, 15, 10 
1951
1952
1953
1954
1955
1956
*FLUX EXTRADOF, TYPE=VOLUMETRIC HEAT FLUX
3.46, 15, 10 
1957
1958
1959
1960
1961
1962
*FLUX EXTRADOF, TYPE=VOLUMETRIC HEAT FLUX
3.44, 15, 10 
1963
1964
1965
1966
1967
1968
*FLUX EXTRADOF, TYPE=VOLUMETRIC HEAT FLUX
3.42, 15, 10 
1969
1970
1971
1972
1973
1974
*FLUX EXTRADOF, TYPE=VOLUMETRIC HEAT FLUX
3.4, 15, 10 
1975
1976
1977
1978
1979
1980
*FLUX EXTRADOF, TYPE=VOLUMETRIC HEAT FLUX
3.38, 15, 10 
1981
1982
1983
1984
1985
1986
*FLUX EXTRADOF, TYPE=VOLUMETRIC HEAT FLUX
3.36, 15, 10 
1987
1988
1989
1990
1991
1992
*FLUX EXTRADOF, TYPE=VOLUMETRIC HEAT FLUX
3.34, 15, 10 
1993
1994
1995
1996
1997
1998
*FLUX EXTRADOF, TYPE=VOLUMETRIC HEAT FLUX
3.32, 15, 10 
1999
2000
2001
2002
2003
2004
*FLUX EXTRADOF, TYPE=VOLUMETRIC HEAT FLUX
3.3, 15, 10 
2005
2006
2007
2008
2009
2010
*FLUX EXTRADOF, TYPE=VOLUMETRIC HEAT FLUX
3.28, 15, 10 
2011
2012
2013
2014
2015
2016
*FLUX EXTRADOF, TYPE=VOLUMETRIC HEAT FLUX
3.26, 15, 10 
2017
2018
2019
2020
2021
2022
*FLUX EXTRADOF, TYPE=VOLUMETRIC HEAT FLUX
3.24, 15, 10 
2023
2024
2025
2026
2027
2028
*FLUX EXTRADOF, TYPE=VOLUMETRIC HEAT FLUX
3.22, 15, 10 
2029
2030
2031
2032
2033
2034
*FLUX EXTRADOF, TYPE=VOLUMETRIC HEAT FLUX
3.2, 15, 10 
2035
2036
2037
2038
2039
2040
*FLUX EXTRADOF, TYPE=VOLUMETRIC HEAT FLUX
1.18, 15, 10 
2041
2042
2043
2044
2045
2046
*FLUX EXTRADOF, TYPE=VOLUMETRIC HEAT FLUX
1.16, 15, 10 
2047
2048
2049
2050
2051
2052
*FLUX EXTRADOF, TYPE=VOLUMETRIC HEAT FLUX
1.14, 15, 10 
2053
2054
2055
2056
2057
2058
*FLUX EXTRADOF, TYPE=VOLUMETRIC HEAT FLUX
1.12, 15, 10 
2059
2060
2061
2062
2063
2064
*FLUX EXTRADOF, TYPE=VOLUMETRIC HEAT FLUX
1.1, 15, 10 
2065
2066
2067
2068
2069
2070
*FLUX EXTRADOF, TYPE=VOLUMETRIC HEAT FLUX
1.08, 15, 10 
2071
2072
2073
2074
2075
2076
*FLUX EXTRADOF, TYPE=VOLUMETRIC HEAT FLUX
1.06, 15, 10 
2077
2078
2079
2080
2081
2082
*FLUX EXTRADOF, TYPE=VOLUMETRIC HEAT FLUX
1.04, 15, 10 
2083
2084
2085
2086
2087
2088
*FLUX EXTRADOF, TYPE=VOLUMETRIC HEAT FLUX
1.02, 15, 10 
2089
2090
2091
2092
2093
2094
*FLUX EXTRADOF, TYPE=VOLUMETRIC HEAT FLUX
1.0, 15, 10 
2095
2096
2097
2098
2099
2100
*FLUX EXTRADOF, TYPE=VOLUMETRIC HEAT FLUX
0.98, 15, 10 
2101
2102
2103
2104
2105
2106
*FLUX EXTRADOF, TYPE=VOLUMETRIC HEAT FLUX
0.96, 15, 10 
2107
2108
2109
2110
2111
2112
*FLUX EXTRADOF, TYPE=VOLUMETRIC HEAT FLUX
0.94, 15, 10 
2113
2114
2115
2116
2117
2118
*FLUX EXTRADOF, TYPE=VOLUMETRIC HEAT FLUX
0.92, 15, 10 
2119
2120
2121
2122
2123
2124
*FLUX EXTRADOF, TYPE=VOLUMETRIC HEAT FLUX
0.9, 15, 10 
2125
2126
2127
2128
2129
2130
*FLUX EXTRADOF, TYPE=VOLUMETRIC HEAT FLUX
0.88, 15, 10 
2131
2132
2133
2134
2135
2136
*FLUX EXTRADOF, TYPE=VOLUMETRIC HEAT FLUX
0.86, 15, 10 
2137
2138
2139
2140
2141
2142
*FLUX EXTRADOF, TYPE=VOLUMETRIC HEAT FLUX
0.84, 15, 10 
2143
2144
2145
2146
2147
2148
*FLUX EXTRADOF, TYPE=VOLUMETRIC HEAT FLUX
0.82, 15, 10 
2149
2150
2151
2152
2153
2154
*FLUX EXTRADOF, TYPE=VOLUMETRIC HEAT FLUX
0.8, 15, 10 
2155
2156
2157
2158
2159
2160
*FLUX EXTRADOF, TYPE=VOLUMETRIC HEAT FLUX
13.58, 15, 10 
2161
2162
2163
2164
2165
2166
*FLUX EXTRADOF, TYPE=VOLUMETRIC HEAT FLUX
13.56, 15, 10 
2167
2168
2169
2170
2171
2172
*FLUX EXTRADOF, TYPE=VOLUMETRIC HEAT FLUX
13.54, 15, 10 
2173
2174
2175
2176
2177
2178
*FLUX EXTRADOF, TYPE=VOLUMETRIC HEAT FLUX
13.52, 15, 10 
2179
2180
2181
2182
2183
2184
*FLUX EXTRADOF, TYPE=VOLUMETRIC HEAT FLUX
13.5, 15, 10 
2185
2186
2187
2188
2189
2190
*FLUX EXTRADOF, TYPE=VOLUMETRIC HEAT FLUX
13.48, 15, 10 
2191
2192
2193
2194
2195
2196
*FLUX EXTRADOF, TYPE=VOLUMETRIC HEAT FLUX
13.46, 15, 10 
2197
2198
2199
2200
2201
2202
*FLUX EXTRADOF, TYPE=VOLUMETRIC HEAT FLUX
13.44, 15, 10 
2203
2204
2205
2206
2207
2208
*FLUX EXTRADOF, TYPE=VOLUMETRIC HEAT FLUX
13.42, 15, 10 
2209
2210
2211
2212
2213
2214
*FLUX EXTRADOF, TYPE=VOLUMETRIC HEAT FLUX
13.4, 15, 10 
2215
2216
2217
2218
2219
2220
*FLUX EXTRADOF, TYPE=VOLUMETRIC HEAT FLUX
13.38, 15, 10 
2221
2222
2223
2224
2225
2226
*FLUX EXTRADOF, TYPE=VOLUMETRIC HEAT FLUX
13.36, 15, 10 
2227
2228
2229
2230
2231
2232
*FLUX EXTRADOF, TYPE=VOLUMETRIC HEAT FLUX
13.34, 15, 10 
2233
2234
2235
2236
2237
2238
*FLUX EXTRADOF, TYPE=VOLUMETRIC HEAT FLUX
13.32, 15, 10 
2239
2240
2241
2242
2243
2244
*FLUX EXTRADOF, TYPE=VOLUMETRIC HEAT FLUX
13.3, 15, 10 
2245
2246
2247
2248
2249
2250
*FLUX EXTRADOF, TYPE=VOLUMETRIC HEAT FLUX
13.28, 15, 10 
2251
2252
2253
2254
2255
2256
*FLUX EXTRADOF, TYPE=VOLUMETRIC HEAT FLUX
13.26, 15, 10 
2257
2258
2259
2260
2261
2262
*FLUX EXTRADOF, TYPE=VOLUMETRIC HEAT FLUX
13.24, 15, 10 
2263
2264
2265
2266
2267
2268
*FLUX EXTRADOF, TYPE=VOLUMETRIC HEAT FLUX
13.22, 15, 10 
2269
2270
2271
2272
2273
2274
*FLUX EXTRADOF, TYPE=VOLUMETRIC HEAT FLUX
13.2, 15, 10 
2275
2276
2277
2278
2279
2280
*FLUX EXTRADOF, TYPE=VOLUMETRIC HEAT FLUX
11.18, 15, 10 
2281
2282
2283
2284
2285
2286
*FLUX EXTRADOF, TYPE=VOLUMETRIC HEAT FLUX
11.16, 15, 10 
2287
2288
2289
2290
2291
2292
*FLUX EXTRADOF, TYPE=VOLUMETRIC HEAT FLUX
11.14, 15, 10 
2293
2294
2295
2296
2297
2298
*FLUX EXTRADOF, TYPE=VOLUMETRIC HEAT FLUX
11.12, 15, 10 
2299
2300
2301
2302
2303
2304
*FLUX EXTRADOF, TYPE=VOLUMETRIC HEAT FLUX
11.1, 15, 10 
2305
2306
2307
2308
2309
2310
*FLUX EXTRADOF, TYPE=VOLUMETRIC HEAT FLUX
11.08, 15, 10 
2311
2312
2313
2314
2315
2316
*FLUX EXTRADOF, TYPE=VOLUMETRIC HEAT FLUX
11.06, 15, 10 
2317
2318
2319
2320
2321
2322
*FLUX EXTRADOF, TYPE=VOLUMETRIC HEAT FLUX
11.04, 15, 10 
2323
2324
2325
2326
2327
2328
*FLUX EXTRADOF, TYPE=VOLUMETRIC HEAT FLUX
11.02, 15, 10 
2329
2330
2331
2332
2333
2334
*FLUX EXTRADOF, TYPE=VOLUMETRIC HEAT FLUX
11.0, 15, 10 
2335
2336
2337
2338
2339
2340
*FLUX EXTRADOF, TYPE=VOLUMETRIC HEAT FLUX
10.98, 15, 10 
2341
2342
2343
2344
2345
2346
*FLUX EXTRADOF, TYPE=VOLUMETRIC HEAT FLUX
10.96, 15, 10 
2347
2348
2349
2350
2351
2352
*FLUX EXTRADOF, TYPE=VOLUMETRIC HEAT FLUX
10.94, 15, 10 
2353
2354
2355
2356
2357
2358
*FLUX EXTRADOF, TYPE=VOLUMETRIC HEAT FLUX
10.92, 15, 10 
2359
2360
2361
2362
2363
2364
*FLUX EXTRADOF, TYPE=VOLUMETRIC HEAT FLUX
10.9, 15, 10 
2365
2366
2367
2368
2369
2370
*FLUX EXTRADOF, TYPE=VOLUMETRIC HEAT FLUX
10.88, 15, 10 
2371
2372
2373
2374
2375
2376
*FLUX EXTRADOF, TYPE=VOLUMETRIC HEAT FLUX
10.86, 15, 10 
2377
2378
2379
2380
2381
2382
*FLUX EXTRADOF, TYPE=VOLUMETRIC HEAT FLUX
10.84, 15, 10 
2383
2384
2385
2386
2387
2388
*FLUX EXTRADOF, TYPE=VOLUMETRIC HEAT FLUX
10.82, 15, 10 
2389
2390
2391
2392
2393
2394
*FLUX EXTRADOF, TYPE=VOLUMETRIC HEAT FLUX
10.8, 15, 10 
2395
2396
2397
2398
2399
2400
*FLUX EXTRADOF, TYPE=VOLUMETRIC HEAT FLUX
8.78, 15, 10 
2401
2402
2403
2404
2405
2406
*FLUX EXTRADOF, TYPE=VOLUMETRIC HEAT FLUX
8.76, 15, 10 
2407
2408
2409
2410
2411
2412
*FLUX EXTRADOF, TYPE=VOLUMETRIC HEAT FLUX
8.74, 15, 10 
2413
2414
2415
2416
2417
2418
*FLUX EXTRADOF, TYPE=VOLUMETRIC HEAT FLUX
8.72, 15, 10 
2419
2420
2421
2422
2423
2424
*FLUX EXTRADOF, TYPE=VOLUMETRIC HEAT FLUX
8.7, 15, 10 
2425
2426
2427
2428
2429
2430
*FLUX EXTRADOF, TYPE=VOLUMETRIC HEAT FLUX
8.68, 15, 10 
2431
2432
2433
2434
2435
2436
*FLUX EXTRADOF, TYPE=VOLUMETRIC HEAT FLUX
8.66, 15, 10 
2437
2438
2439
2440
2441
2442
*FLUX EXTRADOF, TYPE=VOLUMETRIC HEAT FLUX
8.64, 15, 10 
2443
2444
2445
2446
2447
2448
*FLUX EXTRADOF, TYPE=VOLUMETRIC HEAT FLUX
8.62, 15, 10 
2449
2450
2451
2452
2453
2454
*FLUX EXTRADOF, TYPE=VOLUMETRIC HEAT FLUX
8.6, 15, 10 
2455
2456
2457
2458
2459
2460
*FLUX EXTRADOF, TYPE=VOLUMETRIC HEAT FLUX
8.58, 15, 10 
2461
2462
2463
2464
2465
2466
*FLUX EXTRADOF, TYPE=VOLUMETRIC HEAT FLUX
8.56, 15, 10 
2467
2468
2469
2470
2471
2472
*FLUX EXTRADOF, TYPE=VOLUMETRIC HEAT FLUX
8.54, 15, 10 
2473
2474
2475
2476
2477
2478
*FLUX EXTRADOF, TYPE=VOLUMETRIC HEAT FLUX
8.52, 15, 10 
2479
2480
2481
2482
2483
2484
*FLUX EXTRADOF, TYPE=VOLUMETRIC HEAT FLUX
8.5, 15, 10 
2485
2486
2487
2488
2489
2490
*FLUX EXTRADOF, TYPE=VOLUMETRIC HEAT FLUX
8.48, 15, 10 
2491
2492
2493
2494
2495
2496
*FLUX EXTRADOF, TYPE=VOLUMETRIC HEAT FLUX
8.46, 15, 10 
2497
2498
2499
2500
2501
2502
*FLUX EXTRADOF, TYPE=VOLUMETRIC HEAT FLUX
8.44, 15, 10 
2503
2504
2505
2506
2507
2508
*FLUX EXTRADOF, TYPE=VOLUMETRIC HEAT FLUX
8.42, 15, 10 
2509
2510
2511
2512
2513
2514
*FLUX EXTRADOF, TYPE=VOLUMETRIC HEAT FLUX
8.4, 15, 10 
2515
2516
2517
2518
2519
2520
*FLUX EXTRADOF, TYPE=VOLUMETRIC HEAT FLUX
6.38, 15, 10 
2521
2522
2523
2524
2525
2526
*FLUX EXTRADOF, TYPE=VOLUMETRIC HEAT FLUX
6.36, 15, 10 
2527
2528
2529
2530
2531
2532
*FLUX EXTRADOF, TYPE=VOLUMETRIC HEAT FLUX
6.34, 15, 10 
2533
2534
2535
2536
2537
2538
*FLUX EXTRADOF, TYPE=VOLUMETRIC HEAT FLUX
6.32, 15, 10 
2539
2540
2541
2542
2543
2544
*FLUX EXTRADOF, TYPE=VOLUMETRIC HEAT FLUX
6.3, 15, 10 
2545
2546
2547
2548
2549
2550
*FLUX EXTRADOF, TYPE=VOLUMETRIC HEAT FLUX
6.28, 15, 10 
2551
2552
2553
2554
2555
2556
*FLUX EXTRADOF, TYPE=VOLUMETRIC HEAT FLUX
6.26, 15, 10 
2557
2558
2559
2560
2561
2562
*FLUX EXTRADOF, TYPE=VOLUMETRIC HEAT FLUX
6.24, 15, 10 
2563
2564
2565
2566
2567
2568
*FLUX EXTRADOF, TYPE=VOLUMETRIC HEAT FLUX
6.22, 15, 10 
2569
2570
2571
2572
2573
2574
*FLUX EXTRADOF, TYPE=VOLUMETRIC HEAT FLUX
6.2, 15, 10 
2575
2576
2577
2578
2579
2580
*FLUX EXTRADOF, TYPE=VOLUMETRIC HEAT FLUX
6.18, 15, 10 
2581
2582
2583
2584
2585
2586
*FLUX EXTRADOF, TYPE=VOLUMETRIC HEAT FLUX
6.16, 15, 10 
2587
2588
2589
2590
2591
2592
*FLUX EXTRADOF, TYPE=VOLUMETRIC HEAT FLUX
6.14, 15, 10 
2593
2594
2595
2596
2597
2598
*FLUX EXTRADOF, TYPE=VOLUMETRIC HEAT FLUX
6.12, 15, 10 
2599
2600
2601
2602
2603
2604
*FLUX EXTRADOF, TYPE=VOLUMETRIC HEAT FLUX
6.1, 15, 10 
2605
2606
2607
2608
2609
2610
*FLUX EXTRADOF, TYPE=VOLUMETRIC HEAT FLUX
6.08, 15, 10 
2611
2612
2613
2614
2615
2616
*FLUX EXTRADOF, TYPE=VOLUMETRIC HEAT FLUX
6.06, 15, 10 
2617
2618
2619
2620
2621
2622
*FLUX EXTRADOF, TYPE=VOLUMETRIC HEAT FLUX
6.04, 15, 10 
2623
2624
2625
2626
2627
2628
*FLUX EXTRADOF, TYPE=VOLUMETRIC HEAT FLUX
6.02, 15, 10 
2629
2630
2631
2632
2633
2634
*FLUX EXTRADOF, TYPE=VOLUMETRIC HEAT FLUX
6.0, 15, 10 
2635
2636
2637
2638
2639
2640
*FLUX EXTRADOF, TYPE=VOLUMETRIC HEAT FLUX
3.98, 15, 10 
2641
2642
2643
2644
2645
2646
*FLUX EXTRADOF, TYPE=VOLUMETRIC HEAT FLUX
3.96, 15, 10 
2647
2648
2649
2650
2651
2652
*FLUX EXTRADOF, TYPE=VOLUMETRIC HEAT FLUX
3.94, 15, 10 
2653
2654
2655
2656
2657
2658
*FLUX EXTRADOF, TYPE=VOLUMETRIC HEAT FLUX
3.92, 15, 10 
2659
2660
2661
2662
2663
2664
*FLUX EXTRADOF, TYPE=VOLUMETRIC HEAT FLUX
3.9, 15, 10 
2665
2666
2667
2668
2669
2670
*FLUX EXTRADOF, TYPE=VOLUMETRIC HEAT FLUX
3.88, 15, 10 
2671
2672
2673
2674
2675
2676
*FLUX EXTRADOF, TYPE=VOLUMETRIC HEAT FLUX
3.86, 15, 10 
2677
2678
2679
2680
2681
2682
*FLUX EXTRADOF, TYPE=VOLUMETRIC HEAT FLUX
3.84, 15, 10 
2683
2684
2685
2686
2687
2688
*FLUX EXTRADOF, TYPE=VOLUMETRIC HEAT FLUX
3.82, 15, 10 
2689
2690
2691
2692
2693
2694
*FLUX EXTRADOF, TYPE=VOLUMETRIC HEAT FLUX
3.8, 15, 10 
2695
2696
2697
2698
2699
2700
*FLUX EXTRADOF, TYPE=VOLUMETRIC HEAT FLUX
3.78, 15, 10 
2701
2702
2703
2704
2705
2706
*FLUX EXTRADOF, TYPE=VOLUMETRIC HEAT FLUX
3.76, 15, 10 
2707
2708
2709
2710
2711
2712
*FLUX EXTRADOF, TYPE=VOLUMETRIC HEAT FLUX
3.74, 15, 10 
2713
2714
2715
2716
2717
2718
*FLUX EXTRADOF, TYPE=VOLUMETRIC HEAT FLUX
3.72, 15, 10 
2719
2720
2721
2722
2723
2724
*FLUX EXTRADOF, TYPE=VOLUMETRIC HEAT FLUX
3.7, 15, 10 
2725
2726
2727
2728
2729
2730
*FLUX EXTRADOF, TYPE=VOLUMETRIC HEAT FLUX
3.68, 15, 10 
2731
2732
2733
2734
2735
2736
*FLUX EXTRADOF, TYPE=VOLUMETRIC HEAT FLUX
3.66, 15, 10 
2737
2738
2739
2740
2741
2742
*FLUX EXTRADOF, TYPE=VOLUMETRIC HEAT FLUX
3.64, 15, 10 
2743
2744
2745
2746
2747
2748
*FLUX EXTRADOF, TYPE=VOLUMETRIC HEAT FLUX
3.62, 15, 10 
2749
2750
2751
2752
2753
2754
*FLUX EXTRADOF, TYPE=VOLUMETRIC HEAT FLUX
3.6, 15, 10 
2755
2756
2757
2758
2759
2760
*FLUX EXTRADOF, TYPE=VOLUMETRIC HEAT FLUX
1.58, 15, 10 
2761
2762
2763
2764
2765
2766
*FLUX EXTRADOF, TYPE=VOLUMETRIC HEAT FLUX
1.56, 15, 10 
2767
2768
2769
2770
2771
2772
*FLUX EXTRADOF, TYPE=VOLUMETRIC HEAT FLUX
1.54, 15, 10 
2773
2774
2775
2776
2777
2778
*FLUX EXTRADOF, TYPE=VOLUMETRIC HEAT FLUX
1.52, 15, 10 
2779
2780
2781
2782
2783
2784
*FLUX EXTRADOF, TYPE=VOLUMETRIC HEAT FLUX
1.5, 15, 10 
2785
2786
2787
2788
2789
2790
*FLUX EXTRADOF, TYPE=VOLUMETRIC HEAT FLUX
1.48, 15, 10 
2791
2792
2793
2794
2795
2796
*FLUX EXTRADOF, TYPE=VOLUMETRIC HEAT FLUX
1.46, 15, 10 
2797
2798
2799
2800
2801
2802
*FLUX EXTRADOF, TYPE=VOLUMETRIC HEAT FLUX
1.44, 15, 10 
2803
2804
2805
2806
2807
2808
*FLUX EXTRADOF, TYPE=VOLUMETRIC HEAT FLUX
1.42, 15, 10 
2809
2810
2811
2812
2813
2814
*FLUX EXTRADOF, TYPE=VOLUMETRIC HEAT FLUX
1.4, 15, 10 
2815
2816
2817
2818
2819
2820
*FLUX EXTRADOF, TYPE=VOLUMETRIC HEAT FLUX
1.38, 15, 10 
2821
2822
2823
2824
2825
2826
*FLUX EXTRADOF, TYPE=VOLUMETRIC HEAT FLUX
1.36, 15, 10 
2827
2828
2829
2830
2831
2832
*FLUX EXTRADOF, TYPE=VOLUMETRIC HEAT FLUX
1.34, 15, 10 
2833
2834
2835
2836
2837
2838
*FLUX EXTRADOF, TYPE=VOLUMETRIC HEAT FLUX
1.32, 15, 10 
2839
2840
2841
2842
2843
2844
*FLUX EXTRADOF, TYPE=VOLUMETRIC HEAT FLUX
1.3, 15, 10 
2845
2846
2847
2848
2849
2850
*FLUX EXTRADOF, TYPE=VOLUMETRIC HEAT FLUX
1.28, 15, 10 
2851
2852
2853
2854
2855
2856
*FLUX EXTRADOF, TYPE=VOLUMETRIC HEAT FLUX
1.26, 15, 10 
2857
2858
2859
2860
2861
2862
*FLUX EXTRADOF, TYPE=VOLUMETRIC HEAT FLUX
1.24, 15, 10 
2863
2864
2865
2866
2867
2868
*FLUX EXTRADOF, TYPE=VOLUMETRIC HEAT FLUX
1.22, 15, 10 
2869
2870
2871
2872
2873
2874
*FLUX EXTRADOF, TYPE=VOLUMETRIC HEAT FLUX
1.2, 15, 10 
2875
2876
2877
2878
2879
2880
*FLUX EXTRADOF, TYPE=VOLUMETRIC HEAT FLUX
13.98, 15, 10 
2881
2882
2883
2884
2885
2886
*FLUX EXTRADOF, TYPE=VOLUMETRIC HEAT FLUX
13.96, 15, 10 
2887
2888
2889
2890
2891
2892
*FLUX EXTRADOF, TYPE=VOLUMETRIC HEAT FLUX
13.94, 15, 10 
2893
2894
2895
2896
2897
2898
*FLUX EXTRADOF, TYPE=VOLUMETRIC HEAT FLUX
13.92, 15, 10 
2899
2900
2901
2902
2903
2904
*FLUX EXTRADOF, TYPE=VOLUMETRIC HEAT FLUX
13.9, 15, 10 
2905
2906
2907
2908
2909
2910
*FLUX EXTRADOF, TYPE=VOLUMETRIC HEAT FLUX
13.88, 15, 10 
2911
2912
2913
2914
2915
2916
*FLUX EXTRADOF, TYPE=VOLUMETRIC HEAT FLUX
13.86, 15, 10 
2917
2918
2919
2920
2921
2922
*FLUX EXTRADOF, TYPE=VOLUMETRIC HEAT FLUX
13.84, 15, 10 
2923
2924
2925
2926
2927
2928
*FLUX EXTRADOF, TYPE=VOLUMETRIC HEAT FLUX
13.82, 15, 10 
2929
2930
2931
2932
2933
2934
*FLUX EXTRADOF, TYPE=VOLUMETRIC HEAT FLUX
13.8, 15, 10 
2935
2936
2937
2938
2939
2940
*FLUX EXTRADOF, TYPE=VOLUMETRIC HEAT FLUX
13.78, 15, 10 
2941
2942
2943
2944
2945
2946
*FLUX EXTRADOF, TYPE=VOLUMETRIC HEAT FLUX
13.76, 15, 10 
2947
2948
2949
2950
2951
2952
*FLUX EXTRADOF, TYPE=VOLUMETRIC HEAT FLUX
13.74, 15, 10 
2953
2954
2955
2956
2957
2958
*FLUX EXTRADOF, TYPE=VOLUMETRIC HEAT FLUX
13.72, 15, 10 
2959
2960
2961
2962
2963
2964
*FLUX EXTRADOF, TYPE=VOLUMETRIC HEAT FLUX
13.7, 15, 10 
2965
2966
2967
2968
2969
2970
*FLUX EXTRADOF, TYPE=VOLUMETRIC HEAT FLUX
13.68, 15, 10 
2971
2972
2973
2974
2975
2976
*FLUX EXTRADOF, TYPE=VOLUMETRIC HEAT FLUX
13.66, 15, 10 
2977
2978
2979
2980
2981
2982
*FLUX EXTRADOF, TYPE=VOLUMETRIC HEAT FLUX
13.64, 15, 10 
2983
2984
2985
2986
2987
2988
*FLUX EXTRADOF, TYPE=VOLUMETRIC HEAT FLUX
13.62, 15, 10 
2989
2990
2991
2992
2993
2994
*FLUX EXTRADOF, TYPE=VOLUMETRIC HEAT FLUX
13.6, 15, 10 
2995
2996
2997
2998
2999
3000
*FLUX EXTRADOF, TYPE=VOLUMETRIC HEAT FLUX
11.58, 15, 10 
3001
3002
3003
3004
3005
3006
*FLUX EXTRADOF, TYPE=VOLUMETRIC HEAT FLUX
11.56, 15, 10 
3007
3008
3009
3010
3011
3012
*FLUX EXTRADOF, TYPE=VOLUMETRIC HEAT FLUX
11.54, 15, 10 
3013
3014
3015
3016
3017
3018
*FLUX EXTRADOF, TYPE=VOLUMETRIC HEAT FLUX
11.52, 15, 10 
3019
3020
3021
3022
3023
3024
*FLUX EXTRADOF, TYPE=VOLUMETRIC HEAT FLUX
11.5, 15, 10 
3025
3026
3027
3028
3029
3030
*FLUX EXTRADOF, TYPE=VOLUMETRIC HEAT FLUX
11.48, 15, 10 
3031
3032
3033
3034
3035
3036
*FLUX EXTRADOF, TYPE=VOLUMETRIC HEAT FLUX
11.46, 15, 10 
3037
3038
3039
3040
3041
3042
*FLUX EXTRADOF, TYPE=VOLUMETRIC HEAT FLUX
11.44, 15, 10 
3043
3044
3045
3046
3047
3048
*FLUX EXTRADOF, TYPE=VOLUMETRIC HEAT FLUX
11.42, 15, 10 
3049
3050
3051
3052
3053
3054
*FLUX EXTRADOF, TYPE=VOLUMETRIC HEAT FLUX
11.4, 15, 10 
3055
3056
3057
3058
3059
3060
*FLUX EXTRADOF, TYPE=VOLUMETRIC HEAT FLUX
11.38, 15, 10 
3061
3062
3063
3064
3065
3066
*FLUX EXTRADOF, TYPE=VOLUMETRIC HEAT FLUX
11.36, 15, 10 
3067
3068
3069
3070
3071
3072
*FLUX EXTRADOF, TYPE=VOLUMETRIC HEAT FLUX
11.34, 15, 10 
3073
3074
3075
3076
3077
3078
*FLUX EXTRADOF, TYPE=VOLUMETRIC HEAT FLUX
11.32, 15, 10 
3079
3080
3081
3082
3083
3084
*FLUX EXTRADOF, TYPE=VOLUMETRIC HEAT FLUX
11.3, 15, 10 
3085
3086
3087
3088
3089
3090
*FLUX EXTRADOF, TYPE=VOLUMETRIC HEAT FLUX
11.28, 15, 10 
3091
3092
3093
3094
3095
3096
*FLUX EXTRADOF, TYPE=VOLUMETRIC HEAT FLUX
11.26, 15, 10 
3097
3098
3099
3100
3101
3102
*FLUX EXTRADOF, TYPE=VOLUMETRIC HEAT FLUX
11.24, 15, 10 
3103
3104
3105
3106
3107
3108
*FLUX EXTRADOF, TYPE=VOLUMETRIC HEAT FLUX
11.22, 15, 10 
3109
3110
3111
3112
3113
3114
*FLUX EXTRADOF, TYPE=VOLUMETRIC HEAT FLUX
11.2, 15, 10 
3115
3116
3117
3118
3119
3120
*FLUX EXTRADOF, TYPE=VOLUMETRIC HEAT FLUX
9.18, 15, 10 
3121
3122
3123
3124
3125
3126
*FLUX EXTRADOF, TYPE=VOLUMETRIC HEAT FLUX
9.16, 15, 10 
3127
3128
3129
3130
3131
3132
*FLUX EXTRADOF, TYPE=VOLUMETRIC HEAT FLUX
9.14, 15, 10 
3133
3134
3135
3136
3137
3138
*FLUX EXTRADOF, TYPE=VOLUMETRIC HEAT FLUX
9.12, 15, 10 
3139
3140
3141
3142
3143
3144
*FLUX EXTRADOF, TYPE=VOLUMETRIC HEAT FLUX
9.1, 15, 10 
3145
3146
3147
3148
3149
3150
*FLUX EXTRADOF, TYPE=VOLUMETRIC HEAT FLUX
9.08, 15, 10 
3151
3152
3153
3154
3155
3156
*FLUX EXTRADOF, TYPE=VOLUMETRIC HEAT FLUX
9.06, 15, 10 
3157
3158
3159
3160
3161
3162
*FLUX EXTRADOF, TYPE=VOLUMETRIC HEAT FLUX
9.04, 15, 10 
3163
3164
3165
3166
3167
3168
*FLUX EXTRADOF, TYPE=VOLUMETRIC HEAT FLUX
9.02, 15, 10 
3169
3170
3171
3172
3173
3174
*FLUX EXTRADOF, TYPE=VOLUMETRIC HEAT FLUX
9.0, 15, 10 
3175
3176
3177
3178
3179
3180
*FLUX EXTRADOF, TYPE=VOLUMETRIC HEAT FLUX
8.98, 15, 10 
3181
3182
3183
3184
3185
3186
*FLUX EXTRADOF, TYPE=VOLUMETRIC HEAT FLUX
8.96, 15, 10 
3187
3188
3189
3190
3191
3192
*FLUX EXTRADOF, TYPE=VOLUMETRIC HEAT FLUX
8.94, 15, 10 
3193
3194
3195
3196
3197
3198
*FLUX EXTRADOF, TYPE=VOLUMETRIC HEAT FLUX
8.92, 15, 10 
3199
3200
3201
3202
3203
3204
*FLUX EXTRADOF, TYPE=VOLUMETRIC HEAT FLUX
8.9, 15, 10 
3205
3206
3207
3208
3209
3210
*FLUX EXTRADOF, TYPE=VOLUMETRIC HEAT FLUX
8.88, 15, 10 
3211
3212
3213
3214
3215
3216
*FLUX EXTRADOF, TYPE=VOLUMETRIC HEAT FLUX
8.86, 15, 10 
3217
3218
3219
3220
3221
3222
*FLUX EXTRADOF, TYPE=VOLUMETRIC HEAT FLUX
8.84, 15, 10 
3223
3224
3225
3226
3227
3228
*FLUX EXTRADOF, TYPE=VOLUMETRIC HEAT FLUX
8.82, 15, 10 
3229
3230
3231
3232
3233
3234
*FLUX EXTRADOF, TYPE=VOLUMETRIC HEAT FLUX
8.8, 15, 10 
3235
3236
3237
3238
3239
3240
*FLUX EXTRADOF, TYPE=VOLUMETRIC HEAT FLUX
6.78, 15, 10 
3241
3242
3243
3244
3245
3246
*FLUX EXTRADOF, TYPE=VOLUMETRIC HEAT FLUX
6.76, 15, 10 
3247
3248
3249
3250
3251
3252
*FLUX EXTRADOF, TYPE=VOLUMETRIC HEAT FLUX
6.74, 15, 10 
3253
3254
3255
3256
3257
3258
*FLUX EXTRADOF, TYPE=VOLUMETRIC HEAT FLUX
6.72, 15, 10 
3259
3260
3261
3262
3263
3264
*FLUX EXTRADOF, TYPE=VOLUMETRIC HEAT FLUX
6.7, 15, 10 
3265
3266
3267
3268
3269
3270
*FLUX EXTRADOF, TYPE=VOLUMETRIC HEAT FLUX
6.68, 15, 10 
3271
3272
3273
3274
3275
3276
*FLUX EXTRADOF, TYPE=VOLUMETRIC HEAT FLUX
6.66, 15, 10 
3277
3278
3279
3280
3281
3282
*FLUX EXTRADOF, TYPE=VOLUMETRIC HEAT FLUX
6.64, 15, 10 
3283
3284
3285
3286
3287
3288
*FLUX EXTRADOF, TYPE=VOLUMETRIC HEAT FLUX
6.62, 15, 10 
3289
3290
3291
3292
3293
3294
*FLUX EXTRADOF, TYPE=VOLUMETRIC HEAT FLUX
6.6, 15, 10 
3295
3296
3297
3298
3299
3300
*FLUX EXTRADOF, TYPE=VOLUMETRIC HEAT FLUX
6.58, 15, 10 
3301
3302
3303
3304
3305
3306
*FLUX EXTRADOF, TYPE=VOLUMETRIC HEAT FLUX
6.56, 15, 10 
3307
3308
3309
3310
3311
3312
*FLUX EXTRADOF, TYPE=VOLUMETRIC HEAT FLUX
6.54, 15, 10 
3313
3314
3315
3316
3317
3318
*FLUX EXTRADOF, TYPE=VOLUMETRIC HEAT FLUX
6.52, 15, 10 
3319
3320
3321
3322
3323
3324
*FLUX EXTRADOF, TYPE=VOLUMETRIC HEAT FLUX
6.5, 15, 10 
3325
3326
3327
3328
3329
3330
*FLUX EXTRADOF, TYPE=VOLUMETRIC HEAT FLUX
6.48, 15, 10 
3331
3332
3333
3334
3335
3336
*FLUX EXTRADOF, TYPE=VOLUMETRIC HEAT FLUX
6.46, 15, 10 
3337
3338
3339
3340
3341
3342
*FLUX EXTRADOF, TYPE=VOLUMETRIC HEAT FLUX
6.44, 15, 10 
3343
3344
3345
3346
3347
3348
*FLUX EXTRADOF, TYPE=VOLUMETRIC HEAT FLUX
6.42, 15, 10 
3349
3350
3351
3352
3353
3354
*FLUX EXTRADOF, TYPE=VOLUMETRIC HEAT FLUX
6.4, 15, 10 
3355
3356
3357
3358
3359
3360
*FLUX EXTRADOF, TYPE=VOLUMETRIC HEAT FLUX
4.38, 15, 10 
3361
3362
3363
3364
3365
3366
*FLUX EXTRADOF, TYPE=VOLUMETRIC HEAT FLUX
4.36, 15, 10 
3367
3368
3369
3370
3371
3372
*FLUX EXTRADOF, TYPE=VOLUMETRIC HEAT FLUX
4.34, 15, 10 
3373
3374
3375
3376
3377
3378
*FLUX EXTRADOF, TYPE=VOLUMETRIC HEAT FLUX
4.32, 15, 10 
3379
3380
3381
3382
3383
3384
*FLUX EXTRADOF, TYPE=VOLUMETRIC HEAT FLUX
4.3, 15, 10 
3385
3386
3387
3388
3389
3390
*FLUX EXTRADOF, TYPE=VOLUMETRIC HEAT FLUX
4.28, 15, 10 
3391
3392
3393
3394
3395
3396
*FLUX EXTRADOF, TYPE=VOLUMETRIC HEAT FLUX
4.26, 15, 10 
3397
3398
3399
3400
3401
3402
*FLUX EXTRADOF, TYPE=VOLUMETRIC HEAT FLUX
4.24, 15, 10 
3403
3404
3405
3406
3407
3408
*FLUX EXTRADOF, TYPE=VOLUMETRIC HEAT FLUX
4.22, 15, 10 
3409
3410
3411
3412
3413
3414
*FLUX EXTRADOF, TYPE=VOLUMETRIC HEAT FLUX
4.2, 15, 10 
3415
3416
3417
3418
3419
3420
*FLUX EXTRADOF, TYPE=VOLUMETRIC HEAT FLUX
4.18, 15, 10 
3421
3422
3423
3424
3425
3426
*FLUX EXTRADOF, TYPE=VOLUMETRIC HEAT FLUX
4.16, 15, 10 
3427
3428
3429
3430
3431
3432
*FLUX EXTRADOF, TYPE=VOLUMETRIC HEAT FLUX
4.14, 15, 10 
3433
3434
3435
3436
3437
3438
*FLUX EXTRADOF, TYPE=VOLUMETRIC HEAT FLUX
4.12, 15, 10 
3439
3440
3441
3442
3443
3444
*FLUX EXTRADOF, TYPE=VOLUMETRIC HEAT FLUX
4.1, 15, 10 
3445
3446
3447
3448
3449
3450
*FLUX EXTRADOF, TYPE=VOLUMETRIC HEAT FLUX
4.08, 15, 10 
3451
3452
3453
3454
3455
3456
*FLUX EXTRADOF, TYPE=VOLUMETRIC HEAT FLUX
4.06, 15, 10 
3457
3458
3459
3460
3461
3462
*FLUX EXTRADOF, TYPE=VOLUMETRIC HEAT FLUX
4.04, 15, 10 
3463
3464
3465
3466
3467
3468
*FLUX EXTRADOF, TYPE=VOLUMETRIC HEAT FLUX
4.02, 15, 10 
3469
3470
3471
3472
3473
3474
*FLUX EXTRADOF, TYPE=VOLUMETRIC HEAT FLUX
4.0, 15, 10 
3475
3476
3477
3478
3479
3480
*FLUX EXTRADOF, TYPE=VOLUMETRIC HEAT FLUX
1.98, 15, 10 
3481
3482
3483
3484
3485
3486
*FLUX EXTRADOF, TYPE=VOLUMETRIC HEAT FLUX
1.96, 15, 10 
3487
3488
3489
3490
3491
3492
*FLUX EXTRADOF, TYPE=VOLUMETRIC HEAT FLUX
1.94, 15, 10 
3493
3494
3495
3496
3497
3498
*FLUX EXTRADOF, TYPE=VOLUMETRIC HEAT FLUX
1.92, 15, 10 
3499
3500
3501
3502
3503
3504
*FLUX EXTRADOF, TYPE=VOLUMETRIC HEAT FLUX
1.9, 15, 10 
3505
3506
3507
3508
3509
3510
*FLUX EXTRADOF, TYPE=VOLUMETRIC HEAT FLUX
1.88, 15, 10 
3511
3512
3513
3514
3515
3516
*FLUX EXTRADOF, TYPE=VOLUMETRIC HEAT FLUX
1.86, 15, 10 
3517
3518
3519
3520
3521
3522
*FLUX EXTRADOF, TYPE=VOLUMETRIC HEAT FLUX
1.84, 15, 10 
3523
3524
3525
3526
3527
3528
*FLUX EXTRADOF, TYPE=VOLUMETRIC HEAT FLUX
1.82, 15, 10 
3529
3530
3531
3532
3533
3534
*FLUX EXTRADOF, TYPE=VOLUMETRIC HEAT FLUX
1.8, 15, 10 
3535
3536
3537
3538
3539
3540
*FLUX EXTRADOF, TYPE=VOLUMETRIC HEAT FLUX
1.78, 15, 10 
3541
3542
3543
3544
3545
3546
*FLUX EXTRADOF, TYPE=VOLUMETRIC HEAT FLUX
1.76, 15, 10 
3547
3548
3549
3550
3551
3552
*FLUX EXTRADOF, TYPE=VOLUMETRIC HEAT FLUX
1.74, 15, 10 
3553
3554
3555
3556
3557
3558
*FLUX EXTRADOF, TYPE=VOLUMETRIC HEAT FLUX
1.72, 15, 10 
3559
3560
3561
3562
3563
3564
*FLUX EXTRADOF, TYPE=VOLUMETRIC HEAT FLUX
1.7, 15, 10 
3565
3566
3567
3568
3569
3570
*FLUX EXTRADOF, TYPE=VOLUMETRIC HEAT FLUX
1.68, 15, 10 
3571
3572
3573
3574
3575
3576
*FLUX EXTRADOF, TYPE=VOLUMETRIC HEAT FLUX
1.66, 15, 10 
3577
3578
3579
3580
3581
3582
*FLUX EXTRADOF, TYPE=VOLUMETRIC HEAT FLUX
1.64, 15, 10 
3583
3584
3585
3586
3587
3588
*FLUX EXTRADOF, TYPE=VOLUMETRIC HEAT FLUX
1.62, 15, 10 
3589
3590
3591
3592
3593
3594
*FLUX EXTRADOF, TYPE=VOLUMETRIC HEAT FLUX
1.6, 15, 10 
3595
3596
3597
3598
3599
3600
*FLUX EXTRADOF, TYPE=VOLUMETRIC HEAT FLUX
14.38, 15, 10 
3601
3602
3603
3604
3605
3606
*FLUX EXTRADOF, TYPE=VOLUMETRIC HEAT FLUX
14.36, 15, 10 
3607
3608
3609
3610
3611
3612
*FLUX EXTRADOF, TYPE=VOLUMETRIC HEAT FLUX
14.34, 15, 10 
3613
3614
3615
3616
3617
3618
*FLUX EXTRADOF, TYPE=VOLUMETRIC HEAT FLUX
14.32, 15, 10 
3619
3620
3621
3622
3623
3624
*FLUX EXTRADOF, TYPE=VOLUMETRIC HEAT FLUX
14.3, 15, 10 
3625
3626
3627
3628
3629
3630
*FLUX EXTRADOF, TYPE=VOLUMETRIC HEAT FLUX
14.28, 15, 10 
3631
3632
3633
3634
3635
3636
*FLUX EXTRADOF, TYPE=VOLUMETRIC HEAT FLUX
14.26, 15, 10 
3637
3638
3639
3640
3641
3642
*FLUX EXTRADOF, TYPE=VOLUMETRIC HEAT FLUX
14.24, 15, 10 
3643
3644
3645
3646
3647
3648
*FLUX EXTRADOF, TYPE=VOLUMETRIC HEAT FLUX
14.22, 15, 10 
3649
3650
3651
3652
3653
3654
*FLUX EXTRADOF, TYPE=VOLUMETRIC HEAT FLUX
14.2, 15, 10 
3655
3656
3657
3658
3659
3660
*FLUX EXTRADOF, TYPE=VOLUMETRIC HEAT FLUX
14.18, 15, 10 
3661
3662
3663
3664
3665
3666
*FLUX EXTRADOF, TYPE=VOLUMETRIC HEAT FLUX
14.16, 15, 10 
3667
3668
3669
3670
3671
3672
*FLUX EXTRADOF, TYPE=VOLUMETRIC HEAT FLUX
14.14, 15, 10 
3673
3674
3675
3676
3677
3678
*FLUX EXTRADOF, TYPE=VOLUMETRIC HEAT FLUX
14.12, 15, 10 
3679
3680
3681
3682
3683
3684
*FLUX EXTRADOF, TYPE=VOLUMETRIC HEAT FLUX
14.1, 15, 10 
3685
3686
3687
3688
3689
3690
*FLUX EXTRADOF, TYPE=VOLUMETRIC HEAT FLUX
14.08, 15, 10 
3691
3692
3693
3694
3695
3696
*FLUX EXTRADOF, TYPE=VOLUMETRIC HEAT FLUX
14.06, 15, 10 
3697
3698
3699
3700
3701
3702
*FLUX EXTRADOF, TYPE=VOLUMETRIC HEAT FLUX
14.04, 15, 10 
3703
3704
3705
3706
3707
3708
*FLUX EXTRADOF, TYPE=VOLUMETRIC HEAT FLUX
14.02, 15, 10 
3709
3710
3711
3712
3713
3714
*FLUX EXTRADOF, TYPE=VOLUMETRIC HEAT FLUX
14.0, 15, 10 
3715
3716
3717
3718
3719
3720
*FLUX EXTRADOF, TYPE=VOLUMETRIC HEAT FLUX
11.98, 15, 10 
3721
3722
3723
3724
3725
3726
*FLUX EXTRADOF, TYPE=VOLUMETRIC HEAT FLUX
11.96, 15, 10 
3727
3728
3729
3730
3731
3732
*FLUX EXTRADOF, TYPE=VOLUMETRIC HEAT FLUX
11.94, 15, 10 
3733
3734
3735
3736
3737
3738
*FLUX EXTRADOF, TYPE=VOLUMETRIC HEAT FLUX
11.92, 15, 10 
3739
3740
3741
3742
3743
3744
*FLUX EXTRADOF, TYPE=VOLUMETRIC HEAT FLUX
11.9, 15, 10 
3745
3746
3747
3748
3749
3750
*FLUX EXTRADOF, TYPE=VOLUMETRIC HEAT FLUX
11.88, 15, 10 
3751
3752
3753
3754
3755
3756
*FLUX EXTRADOF, TYPE=VOLUMETRIC HEAT FLUX
11.86, 15, 10 
3757
3758
3759
3760
3761
3762
*FLUX EXTRADOF, TYPE=VOLUMETRIC HEAT FLUX
11.84, 15, 10 
3763
3764
3765
3766
3767
3768
*FLUX EXTRADOF, TYPE=VOLUMETRIC HEAT FLUX
11.82, 15, 10 
3769
3770
3771
3772
3773
3774
*FLUX EXTRADOF, TYPE=VOLUMETRIC HEAT FLUX
11.8, 15, 10 
3775
3776
3777
3778
3779
3780
*FLUX EXTRADOF, TYPE=VOLUMETRIC HEAT FLUX
11.78, 15, 10 
3781
3782
3783
3784
3785
3786
*FLUX EXTRADOF, TYPE=VOLUMETRIC HEAT FLUX
11.76, 15, 10 
3787
3788
3789
3790
3791
3792
*FLUX EXTRADOF, TYPE=VOLUMETRIC HEAT FLUX
11.74, 15, 10 
3793
3794
3795
3796
3797
3798
*FLUX EXTRADOF, TYPE=VOLUMETRIC HEAT FLUX
11.72, 15, 10 
3799
3800
3801
3802
3803
3804
*FLUX EXTRADOF, TYPE=VOLUMETRIC HEAT FLUX
11.7, 15, 10 
3805
3806
3807
3808
3809
3810
*FLUX EXTRADOF, TYPE=VOLUMETRIC HEAT FLUX
11.68, 15, 10 
3811
3812
3813
3814
3815
3816
*FLUX EXTRADOF, TYPE=VOLUMETRIC HEAT FLUX
11.66, 15, 10 
3817
3818
3819
3820
3821
3822
*FLUX EXTRADOF, TYPE=VOLUMETRIC HEAT FLUX
11.64, 15, 10 
3823
3824
3825
3826
3827
3828
*FLUX EXTRADOF, TYPE=VOLUMETRIC HEAT FLUX
11.62, 15, 10 
3829
3830
3831
3832
3833
3834
*FLUX EXTRADOF, TYPE=VOLUMETRIC HEAT FLUX
11.6, 15, 10 
3835
3836
3837
3838
3839
3840
*FLUX EXTRADOF, TYPE=VOLUMETRIC HEAT FLUX
9.58, 15, 10 
3841
3842
3843
3844
3845
3846
*FLUX EXTRADOF, TYPE=VOLUMETRIC HEAT FLUX
9.56, 15, 10 
3847
3848
3849
3850
3851
3852
*FLUX EXTRADOF, TYPE=VOLUMETRIC HEAT FLUX
9.54, 15, 10 
3853
3854
3855
3856
3857
3858
*FLUX EXTRADOF, TYPE=VOLUMETRIC HEAT FLUX
9.52, 15, 10 
3859
3860
3861
3862
3863
3864
*FLUX EXTRADOF, TYPE=VOLUMETRIC HEAT FLUX
9.5, 15, 10 
3865
3866
3867
3868
3869
3870
*FLUX EXTRADOF, TYPE=VOLUMETRIC HEAT FLUX
9.48, 15, 10 
3871
3872
3873
3874
3875
3876
*FLUX EXTRADOF, TYPE=VOLUMETRIC HEAT FLUX
9.46, 15, 10 
3877
3878
3879
3880
3881
3882
*FLUX EXTRADOF, TYPE=VOLUMETRIC HEAT FLUX
9.44, 15, 10 
3883
3884
3885
3886
3887
3888
*FLUX EXTRADOF, TYPE=VOLUMETRIC HEAT FLUX
9.42, 15, 10 
3889
3890
3891
3892
3893
3894
*FLUX EXTRADOF, TYPE=VOLUMETRIC HEAT FLUX
9.4, 15, 10 
3895
3896
3897
3898
3899
3900
*FLUX EXTRADOF, TYPE=VOLUMETRIC HEAT FLUX
9.38, 15, 10 
3901
3902
3903
3904
3905
3906
*FLUX EXTRADOF, TYPE=VOLUMETRIC HEAT FLUX
9.36, 15, 10 
3907
3908
3909
3910
3911
3912
*FLUX EXTRADOF, TYPE=VOLUMETRIC HEAT FLUX
9.34, 15, 10 
3913
3914
3915
3916
3917
3918
*FLUX EXTRADOF, TYPE=VOLUMETRIC HEAT FLUX
9.32, 15, 10 
3919
3920
3921
3922
3923
3924
*FLUX EXTRADOF, TYPE=VOLUMETRIC HEAT FLUX
9.3, 15, 10 
3925
3926
3927
3928
3929
3930
*FLUX EXTRADOF, TYPE=VOLUMETRIC HEAT FLUX
9.28, 15, 10 
3931
3932
3933
3934
3935
3936
*FLUX EXTRADOF, TYPE=VOLUMETRIC HEAT FLUX
9.26, 15, 10 
3937
3938
3939
3940
3941
3942
*FLUX EXTRADOF, TYPE=VOLUMETRIC HEAT FLUX
9.24, 15, 10 
3943
3944
3945
3946
3947
3948
*FLUX EXTRADOF, TYPE=VOLUMETRIC HEAT FLUX
9.22, 15, 10 
3949
3950
3951
3952
3953
3954
*FLUX EXTRADOF, TYPE=VOLUMETRIC HEAT FLUX
9.2, 15, 10 
3955
3956
3957
3958
3959
3960
*FLUX EXTRADOF, TYPE=VOLUMETRIC HEAT FLUX
7.18, 15, 10 
3961
3962
3963
3964
3965
3966
*FLUX EXTRADOF, TYPE=VOLUMETRIC HEAT FLUX
7.16, 15, 10 
3967
3968
3969
3970
3971
3972
*FLUX EXTRADOF, TYPE=VOLUMETRIC HEAT FLUX
7.14, 15, 10 
3973
3974
3975
3976
3977
3978
*FLUX EXTRADOF, TYPE=VOLUMETRIC HEAT FLUX
7.12, 15, 10 
3979
3980
3981
3982
3983
3984
*FLUX EXTRADOF, TYPE=VOLUMETRIC HEAT FLUX
7.1, 15, 10 
3985
3986
3987
3988
3989
3990
*FLUX EXTRADOF, TYPE=VOLUMETRIC HEAT FLUX
7.08, 15, 10 
3991
3992
3993
3994
3995
3996
*FLUX EXTRADOF, TYPE=VOLUMETRIC HEAT FLUX
7.06, 15, 10 
3997
3998
3999
4000
4001
4002
*FLUX EXTRADOF, TYPE=VOLUMETRIC HEAT FLUX
7.04, 15, 10 
4003
4004
4005
4006
4007
4008
*FLUX EXTRADOF, TYPE=VOLUMETRIC HEAT FLUX
7.02, 15, 10 
4009
4010
4011
4012
4013
4014
*FLUX EXTRADOF, TYPE=VOLUMETRIC HEAT FLUX
7.0, 15, 10 
4015
4016
4017
4018
4019
4020
*FLUX EXTRADOF, TYPE=VOLUMETRIC HEAT FLUX
6.98, 15, 10 
4021
4022
4023
4024
4025
4026
*FLUX EXTRADOF, TYPE=VOLUMETRIC HEAT FLUX
6.96, 15, 10 
4027
4028
4029
4030
4031
4032
*FLUX EXTRADOF, TYPE=VOLUMETRIC HEAT FLUX
6.94, 15, 10 
4033
4034
4035
4036
4037
4038
*FLUX EXTRADOF, TYPE=VOLUMETRIC HEAT FLUX
6.92, 15, 10 
4039
4040
4041
4042
4043
4044
*FLUX EXTRADOF, TYPE=VOLUMETRIC HEAT FLUX
6.9, 15, 10 
4045
4046
4047
4048
4049
4050
*FLUX EXTRADOF, TYPE=VOLUMETRIC HEAT FLUX
6.88, 15, 10 
4051
4052
4053
4054
4055
4056
*FLUX EXTRADOF, TYPE=VOLUMETRIC HEAT FLUX
6.86, 15, 10 
4057
4058
4059
4060
4061
4062
*FLUX EXTRADOF, TYPE=VOLUMETRIC HEAT FLUX
6.84, 15, 10 
4063
4064
4065
4066
4067
4068
*FLUX EXTRADOF, TYPE=VOLUMETRIC HEAT FLUX
6.82, 15, 10 
4069
4070
4071
4072
4073
4074
*FLUX EXTRADOF, TYPE=VOLUMETRIC HEAT FLUX
6.8, 15, 10 
4075
4076
4077
4078
4079
4080
*FLUX EXTRADOF, TYPE=VOLUMETRIC HEAT FLUX
4.78, 15, 10 
4081
4082
4083
4084
4085
4086
*FLUX EXTRADOF, TYPE=VOLUMETRIC HEAT FLUX
4.76, 15, 10 
4087
4088
4089
4090
4091
4092
*FLUX EXTRADOF, TYPE=VOLUMETRIC HEAT FLUX
4.74, 15, 10 
4093
4094
4095
4096
4097
4098
*FLUX EXTRADOF, TYPE=VOLUMETRIC HEAT FLUX
4.72, 15, 10 
4099
4100
4101
4102
4103
4104
*FLUX EXTRADOF, TYPE=VOLUMETRIC HEAT FLUX
4.7, 15, 10 
4105
4106
4107
4108
4109
4110
*FLUX EXTRADOF, TYPE=VOLUMETRIC HEAT FLUX
4.68, 15, 10 
4111
4112
4113
4114
4115
4116
*FLUX EXTRADOF, TYPE=VOLUMETRIC HEAT FLUX
4.66, 15, 10 
4117
4118
4119
4120
4121
4122
*FLUX EXTRADOF, TYPE=VOLUMETRIC HEAT FLUX
4.64, 15, 10 
4123
4124
4125
4126
4127
4128
*FLUX EXTRADOF, TYPE=VOLUMETRIC HEAT FLUX
4.62, 15, 10 
4129
4130
4131
4132
4133
4134
*FLUX EXTRADOF, TYPE=VOLUMETRIC HEAT FLUX
4.6, 15, 10 
4135
4136
4137
4138
4139
4140
*FLUX EXTRADOF, TYPE=VOLUMETRIC HEAT FLUX
4.58, 15, 10 
4141
4142
4143
4144
4145
4146
*FLUX EXTRADOF, TYPE=VOLUMETRIC HEAT FLUX
4.56, 15, 10 
4147
4148
4149
4150
4151
4152
*FLUX EXTRADOF, TYPE=VOLUMETRIC HEAT FLUX
4.54, 15, 10 
4153
4154
4155
4156
4157
4158
*FLUX EXTRADOF, TYPE=VOLUMETRIC HEAT FLUX
4.52, 15, 10 
4159
4160
4161
4162
4163
4164
*FLUX EXTRADOF, TYPE=VOLUMETRIC HEAT FLUX
4.5, 15, 10 
4165
4166
4167
4168
4169
4170
*FLUX EXTRADOF, TYPE=VOLUMETRIC HEAT FLUX
4.48, 15, 10 
4171
4172
4173
4174
4175
4176
*FLUX EXTRADOF, TYPE=VOLUMETRIC HEAT FLUX
4.46, 15, 10 
4177
4178
4179
4180
4181
4182
*FLUX EXTRADOF, TYPE=VOLUMETRIC HEAT FLUX
4.44, 15, 10 
4183
4184
4185
4186
4187
4188
*FLUX EXTRADOF, TYPE=VOLUMETRIC HEAT FLUX
4.42, 15, 10 
4189
4190
4191
4192
4193
4194
*FLUX EXTRADOF, TYPE=VOLUMETRIC HEAT FLUX
4.4, 15, 10 
4195
4196
4197
4198
4199
4200
*FLUX EXTRADOF, TYPE=VOLUMETRIC HEAT FLUX
2.38, 15, 10 
4201
4202
4203
4204
4205
4206
*FLUX EXTRADOF, TYPE=VOLUMETRIC HEAT FLUX
2.36, 15, 10 
4207
4208
4209
4210
4211
4212
*FLUX EXTRADOF, TYPE=VOLUMETRIC HEAT FLUX
2.34, 15, 10 
4213
4214
4215
4216
4217
4218
*FLUX EXTRADOF, TYPE=VOLUMETRIC HEAT FLUX
2.32, 15, 10 
4219
4220
4221
4222
4223
4224
*FLUX EXTRADOF, TYPE=VOLUMETRIC HEAT FLUX
2.3, 15, 10 
4225
4226
4227
4228
4229
4230
*FLUX EXTRADOF, TYPE=VOLUMETRIC HEAT FLUX
2.28, 15, 10 
4231
4232
4233
4234
4235
4236
*FLUX EXTRADOF, TYPE=VOLUMETRIC HEAT FLUX
2.26, 15, 10 
4237
4238
4239
4240
4241
4242
*FLUX EXTRADOF, TYPE=VOLUMETRIC HEAT FLUX
2.24, 15, 10 
4243
4244
4245
4246
4247
4248
*FLUX EXTRADOF, TYPE=VOLUMETRIC HEAT FLUX
2.22, 15, 10 
4249
4250
4251
4252
4253
4254
*FLUX EXTRADOF, TYPE=VOLUMETRIC HEAT FLUX
2.2, 15, 10 
4255
4256
4257
4258
4259
4260
*FLUX EXTRADOF, TYPE=VOLUMETRIC HEAT FLUX
2.18, 15, 10 
4261
4262
4263
4264
4265
4266
*FLUX EXTRADOF, TYPE=VOLUMETRIC HEAT FLUX
2.16, 15, 10 
4267
4268
4269
4270
4271
4272
*FLUX EXTRADOF, TYPE=VOLUMETRIC HEAT FLUX
2.14, 15, 10 
4273
4274
4275
4276
4277
4278
*FLUX EXTRADOF, TYPE=VOLUMETRIC HEAT FLUX
2.12, 15, 10 
4279
4280
4281
4282
4283
4284
*FLUX EXTRADOF, TYPE=VOLUMETRIC HEAT FLUX
2.1, 15, 10 
4285
4286
4287
4288
4289
4290
*FLUX EXTRADOF, TYPE=VOLUMETRIC HEAT FLUX
2.08, 15, 10 
4291
4292
4293
4294
4295
4296
*FLUX EXTRADOF, TYPE=VOLUMETRIC HEAT FLUX
2.06, 15, 10 
4297
4298
4299
4300
4301
4302
*FLUX EXTRADOF, TYPE=VOLUMETRIC HEAT FLUX
2.04, 15, 10 
4303
4304
4305
4306
4307
4308
*FLUX EXTRADOF, TYPE=VOLUMETRIC HEAT FLUX
2.02, 15, 10 
4309
4310
4311
4312
4313
4314
*FLUX EXTRADOF, TYPE=VOLUMETRIC HEAT FLUX
2.0, 15, 10 
4315
4316
4317
4318
4319
4320
*END SOLVER
*MATERIAL, name=Region1
*Density
1000
*HyperElastic, St-Venant-Kirchhoff
120E6, 0.33
*ExtraDof
*Temperature
0, 0, 1, 0, 0, 0, 0
*List of Elements
All
*INITINTVARS
1, 1, 12.38
2, 1, 12.38
3, 1, 12.38
4, 1, 12.38
5, 1, 12.38
6, 1, 12.38
7, 1, 12.36
8, 1, 12.36
9, 1, 12.36
10, 1, 12.36
11, 1, 12.36
12, 1, 12.36
13, 1, 12.34
14, 1, 12.34
15, 1, 12.34
16, 1, 12.34
17, 1, 12.34
18, 1, 12.34
19, 1, 12.32
20, 1, 12.32
** ... 4300 like lines cut
*END
