*Node
  1,  -40, -20, 600
  2,  -40, 20, 600
  3,  -40, 20, 0
  4,  -40, -20, 0
  5,  40, 20, 600
  6,  40, 20, 0
  7,  40, -20, 0
  8,  40, -20, 600
  9,  -40, 0, 600
  10,  -40, 20, 580
  11,  -40, 20, 560
  12,  -40, 20, 540
  13,  -40, 20, 520
  14,  -40, 20, 500
  15,  -40, 20, 480
  16,  -40, 20, 460
  17,  -40, 20, 440
  18,  -40, 20, 420
  19,  -40, 20, 400
  20,  -40, 20, 380
** ... 592 like lines cut
*Element, type=C3D4
   1, 204, 379, 380, 381
   2, 382, 383, 384, 144
   3, 385, 386, 131, 358
   4, 387, 388, 379, 389
   5, 389, 359, 385, 130
   6, 385, 287, 130, 131
   7, 390, 391, 126, 299
   8, 392, 393, 364, 394
   9, 393, 364, 391, 125
  10, 391, 364, 126, 125
  11, 395, 272, 135, 136
  12, 396, 397, 395, 269
  13, 398, 397, 269, 395
  14, 396, 395, 136, 269
  15, 399, 400, 401, 402
  16, 403, 404, 405, 369
  17, 406, 318, 402, 400
  18,   8, 350, 260, 140
  19, 406, 400, 317, 318
  20, 407, 408, 409, 307
** ... 2304 like lines cut
*FEM Nodes
All
*FEM Elements
All
*SOLVER, EXPLICIT
*Scale Factor
0.1
*Outputs
500
All, 22
*Time
0, 1
*BOUNDARY, TYPE=DISPLACEMENT RAMP
   3, 0, 0
   4, 0, 0
   6, 0, 0
   7, 0, 0
  39, 0, 0
 101, 0, 0
 102, 0, 0
 103, 0, 0
 104, 0, 0
 105, 0, 0
 106, 0, 0
 107, 0, 0
 257, 0, 0
 258, 0, 0
 259, 0, 0
   3, 1, 0
   4, 1, 0
   6, 1, 0
   7, 1, 0
  39, 1, 0
** ... 70 like lines cut
*END SOLVER
*MATERIAL, name=Region1
*Density
1000
*ViscoGrowth
158E9
1
73E8, 73E8
1000E6
2
*List of Elements
All
*END
