*Node
      1,           5.,           0.,           1.
      2,           0.,           0.,           1.
      3,           0.,           0.,           0.
      4,           5.,           0.,           0.
      5,           0.,           1.,           1.
      6,           0.,           1.,           0.
      7,           5.,           1.,           0.
      8,           5.,           1.,           1.
      9,         4.75,           0.,           1.
     10,          4.5,           0.,           1.
     11,         4.25,           0.,           1.
     12,           4.,           0.,           1.
     13,         3.75,           0.,           1.
     14,          3.5,           0.,           1.
     15,         3.25,           0.,           1.
     16,           3.,           0.,           1.
     17,         2.75,           0.,           1.
     18,          2.5,           0.,           1.
     19,         2.25,           0.,           1.
     20,           2.,           0.,           1.
** ... 602 like lines cut
*Element, type=C3D4
   1, 355, 356, 357, 358
   2, 355, 359, 360, 361
   3, 362, 361, 363, 355
   4, 362, 355, 358, 360
   5, 357, 364, 355, 358
   6, 365, 366, 364, 357
   7, 367, 368, 269, 250
   8, 369, 370, 250, 367
   9, 369, 371, 372, 373
  10, 369, 370, 373, 372
  11, 374, 236, 375, 376
  12, 374, 377, 366, 375
  13, 378, 379, 380, 248
  14, 374, 381, 382, 383
  15, 374, 382, 384, 385
  16, 366, 381, 384, 374
  17, 386, 387, 388, 389
  18, 390, 391, 392, 393
  19, 394, 395, 396, 397
  20, 397, 395, 396, 391
** ... 2497 like lines cut
*FEM Nodes
All
*FEM Elements
All
*SOLVER, IMPLICIT STATIC
*Outputs
200
*Time
0,1
*TIME STEPPING PLAN
0.1,5
0.5,2
1,5
*STIFFNESS MATRIX, TYPE=BEGINNING
*BOUNDARY, TYPE=DISPLACEMENT RAMP
2,0,0
3,0,0
5,0,0
6,0,0
28,0,0
29,0,0
30,0,0
53,0,0
54,0,0
55,0,0
56,0,0
57,0,0
58,0,0
59,0,0
60,0,0
61,0,0
166,0,0
167,0,0
168,0,0
169,0,0
** ... 1299 like lines cut
*PETSC_SOLVER, lu
*END SOLVER
*MATERIAL, name=Region1
*Density
1000
*HyperElastic, St-Venant-Kirchhoff-ThermoMechanics
1E6, 0.3, 1E-6, 0
*ExtraDof
*TemperatureCoupling
0, 0, 100, 0, 0, 0, 0
*List of Elements
All
*END
