*Node
1,0,0
2,0.0666666666665325,0
3,0.06666666666663537,0.02500000000006918
4,0,0.02500000000006918
5,0.06666666666673823,0.05000000000013698
6,0,0.05000000000013698
7,0.0666666666668411,0.07500000000006918
8,0,0.07500000000006918
9,0.06666666666694399,0.1
10,0,0.1
11,0.1333333333330848,0
12,0.1333333333332857,0.02500000000006918
13,0.1333333333334866,0.05000000000013698
14,0.1333333333336874,0.07500000000006918
15,0.1333333333338883,0.1
16,0.1999999999995569,0
17,0.1999999999998758,0.02500000000006918
18,0.2000000000001947,0.05000000000013698
19,0.2000000000005136,0.07500000000006918
20,0.2000000000008324,0.1
** ... 60 like lines cut
*Element, type=CPS3
1,1,2,3
2,3,4,1
3,4,3,5
4,5,6,4
5,6,5,7
6,7,8,6
7,8,7,9
8,9,10,8
9,2,11,12
10,12,3,2
11,3,12,13
12,13,5,3
13,5,13,14
14,14,7,5
15,7,14,15
16,15,9,7
17,11,16,17
18,17,12,11
19,12,17,18
20,18,13,12
** ... 100 like lines cut
*FEM Nodes
All
*FEM Elements
All
*SOLVER, IMPLICIT
*Number Of Steps
70
*Scale Factor
500
*Outputs
1000
All,max
*Time
0,4
*BOUNDARY, TYPE=DISPLACEMENT RAMP
1,0,0
10,0,0
6,0,0
4,0,0
8,0,0
1,1,0
10,1,0
6,1,0
4,1,0
8,1,0
*EXTRACTION, NODE
TipDisplacement,Unknown,Mean,0
78
*EXTRACTION, NODE
TipDisplacement,Unknown,Mean,1
78
*EXTRACTION, NODE
TipInternalForce,InternalForce,Sum,0
76
80
79
78
77
*EXTRACTION, NODE
TipInternalForce,InternalForce,Sum,1
76
80
79
78
77
*EXTRACTION, NODE
TipExternalForce,ExternalForce,Sum,0
76
80
79
78
77
*EXTRACTION, NODE
TipExternalForce,ExternalForce,Sum,1
76
80
79
78
77
*EXTRACTION, NODE
RootInternalForce,InternalForce,Sum,0
1
10
6
4
8
*EXTRACTION, NODE
RootInternalForce,InternalForce,Sum,1
1
10
6
4
8
*EXTRACTION, NODE
RootExternalForce,ExternalForce,Sum,0
1
10
6
4
8
*EXTRACTION, NODE
RootExternalForce,ExternalForce,Sum,1
1
10
6
4
8
*EXTRACTION, ELEMENT
DeforEnergy,DEFO_ENERGY,Sum
All
*EXTRACTION, ELEMENT
kineEnergy,KIN_ENERGY,Sum
All
*EXTRACTION, ELEMENT
extEnergy,EXTERNAL_ENERGY,Sum
All
*END SOLVER
*BOUNDARY, TYPE=TRACTION RAMP
0,0.8001,0,1,0,2
113
115
117
119
*MATERIAL, name=Mat1
*Density
1
*Linear-Elastic
1000,0.3,PlaneStrain
*List of Elements
All
*END