*Node
1,-1,-0.08823529411650421
2,-0.9295924424390984,-0.114504006890541
3,-1,-0.1470588235284322
4,-0.1501715260117872,-0.2482470163955738
5,-0.1911987092821508,-0.2795192282504705
6,-0.1950826105720777,-0.2307707208433116
7,-0.003717251786430069,0.3151175141165185
8,0.008747710447808083,0.3590223912916916
9,0.03728232197407791,0.3266545203872265
10,0.5955733335631013,0.03728745082451004
11,0.5334682269611916,0.05226271487750125
12,0.5829079952154396,0.08725971250026775
13,0.1906253978829241,0.3637788128695321
14,0.2328646078179195,0.3601888777182451
15,0.2110301615831017,0.3146453830683253
16,0.3624021714407815,0.1574033372932709
17,0.3480731118746004,0.2064043900006582
18,0.3912497121791255,0.182447827739475
19,0.5284696638997205,0.1068044894182916
20,0.4839630789373535,0.1227628966209254
** ... 866 like lines cut
*Element, type=CPS3
1,1,2,3
2,4,5,6
3,7,8,9
4,10,11,12
5,13,14,15
6,16,17,18
7,19,20,21
8,13,15,22
9,23,24,25
10,26,27,28
11,29,30,31
12,32,33,34
13,35,36,37
14,7,38,8
15,25,39,23
16,40,41,42
17,19,21,43
18,44,45,46
19,47,27,26
20,48,40,42
** ... 1618 like lines cut
*FEM Nodes
All
*FEM Elements
All
*SOLVER, IMPLICIT STATIC
*Number Of Steps
50
*Outputs
1000
All,max
*Time
0,10
*BOUNDARY, TYPE=DISPLACEMENT RAMP
3,0,0
704,0,0
695,0,0
709,0,0
708,0,0
717,0,0
875,0,0
873,0,0
836,0,0
837,0,0
711,0,0
712,0,0
703,0,0
687,0,0
689,0,0
523,0,0
202,0,0
1,0,0
3,2,0
704,2,0
** ... 34 like lines cut
*EXTRACTION, ELEMENT
DeforEnergy,DEFO_ENERGY,Sum
All
*EXTRACTION, ELEMENT
kineEnergy,KIN_ENERGY,Sum
All
*EXTRACTION, ELEMENT
extEnergy,EXTERNAL_ENERGY,Sum
All
*END SOLVER
*FLUX EXTRADOF, TYPE=HEAT INST
0,5,1800,1800,0,3
706
131
1220
674
1347
232
713
1355
715
558
559
560
144
722
724
601
382
*FLUX EXTRADOF, TYPE=VOLUMETRIC HEAT FLUX
0,10,100
1
2
3
4
5
6
7
8
9
10
11
12
13
14
15
16
17
18
19
** ... 1619 like lines cut
*FLUX EXTRADOF, TYPE=CONVECTION
0,7.5,800.0,12,3
705
1
1060
1349
710
581
1353
682
716
1581
718
1231
652
684
117
828
703
*FLUX EXTRADOF, TYPE=RADIATION
0,8.5,500.0,120,3
705
1
1060
1349
710
581
1353
682
716
1581
718
1231
652
684
117
828
703
*MATERIAL, name=Mat1
*Density
1000
*HyperElastic, Neo-Hookean
1000000000.0,0.3
*ExtraDof
*Temperature
0,0,5,0,0,0,0
*List of Elements
All
*INITIAL CONDITIONS EXTRADOF
273.0
*END